/*---------------------------------------------------------------------------*\
| =========                 |                                                 |
| \\      /  F ield         | OpenFOAM: The Open Source CFD Toolbox           |
|  \\    /   O peration     | Version:  3.0.x                                 |
|   \\  /    A nd           | Web:      www.OpenFOAM.org                      |
|    \\/     M anipulation  |                                                 |
\*---------------------------------------------------------------------------*/
Build  : 3.0.x-5b548639bc6e
Exec   : icoFoam
Date   : Jun 16 2016
Time   : 17:12:53
Host   : "dagobah"
PID    : 8010
Case   : /home/joegi/OpenFOAM/of_courses/2016a/of_course_tutorials/30x/101Linear_SOLVERS/log2
nProcs : 1
sigFpe : Enabling floating point exception trapping (FOAM_SIGFPE).
fileModificationChecking : Monitoring run-time modified files using timeStampMaster
allowSystemOperations : Allowing user-supplied system call operations

// * * * * * * * * * * * * * * * * * * * * * * * * * * * * * * * * * * * * * //
Create time

Create mesh for time = 0


PISO: Operating solver in PISO mode

Reading transportProperties

Reading field p

Reading field U

Reading/calculating face flux field phi


Starting time loop

Time = 0.0005

Courant Number mean: 0 max: 0
smoothSolver:  Solving for Ux, Initial residual = 0, Final residual = 0, No Iterations 0
smoothSolver:  Solving for Uy, Initial residual = 0, Final residual = 0, No Iterations 0
smoothSolver:  Solving for Uz, Initial residual = 1, Final residual = 5.7493319e-09, No Iterations 15
smoothSolver:  Solving for p, Initial residual = 1, Final residual = 1, No Iterations 1000
smoothSolver:  Solving for p, Initial residual = 0.43737324, Final residual = 0.43729347, No Iterations 1000
time step continuity errors : sum local = 0.0032959304, global = -0.0032959304, cumulative = -0.0032959304
smoothSolver:  Solving for p, Initial residual = 0.38511403, Final residual = 0.37975334, No Iterations 1000
smoothSolver:  Solving for p, Initial residual = 0.40948174, Final residual = 0.40946853, No Iterations 1000
time step continuity errors : sum local = 0.0032959304, global = -0.0032959304, cumulative = -0.0065918607
ExecutionTime = 5.96 s  ClockTime = 6 s

fieldMinMax minmaxdomain output:
    min(p) = 0 at location (-0.000525 0 0.216)
    max(p) = 54.925586 at location (0.00014395118 -0.0014503614 0.0015)
    min(U) = (-0.0066441937 -0.0043856422 0.37505039) at location (0.0011227589 0.00092118362 0.0015)
    max(U) = (0.0098088798 0.014324112 0.83007426) at location (-0.00067060103 -0.00082388178 0.0015)

Time = 0.001

Courant Number mean: 0.013944622 max: 0.34674143
smoothSolver:  Solving for Ux, Initial residual = 0.35307007, Final residual = 3.9301927e-09, No Iterations 13
smoothSolver:  Solving for Uy, Initial residual = 0.36094452, Final residual = 3.2996396e-09, No Iterations 13
smoothSolver:  Solving for Uz, Initial residual = 0.32666731, Final residual = 7.2332811e-09, No Iterations 14
smoothSolver:  Solving for p, Initial residual = 0.79232731, Final residual = 0.51200767, No Iterations 1000
smoothSolver:  Solving for p, Initial residual = 0.54959074, Final residual = 0.41883248, No Iterations 1000
time step continuity errors : sum local = 0.0042954859, global = -0.0032959304, cumulative = -0.0098877911
smoothSolver:  Solving for p, Initial residual = 0.4510004, Final residual = 0.34612313, No Iterations 1000
smoothSolver:  Solving for p, Initial residual = 0.37141311, Final residual = 0.37046165, No Iterations 1000
time step continuity errors : sum local = 0.0032959304, global = -0.0032959304, cumulative = -0.013183721
ExecutionTime = 11.27 s  ClockTime = 12 s

fieldMinMax minmaxdomain output:
    min(p) = 0 at location (-0.000525 0 0.216)
    max(p) = 40.703677 at location (-7.5e-05 1.9478047e-21 0.0105)
    min(U) = (-0.011373276 -0.038979308 1.0200727) at location (0.00033812783 0.0011454499 0.0015)
    max(U) = (0.022623615 0.0038126981 1.1295131) at location (-0.00063579685 -4.7926765e-05 0.0015)

Time = 0.0015

Courant Number mean: 0.029897691 max: 0.45722124
smoothSolver:  Solving for Ux, Initial residual = 0.29019651, Final residual = 7.381232e-09, No Iterations 13
smoothSolver:  Solving for Uy, Initial residual = 0.2837887, Final residual = 7.047043e-09, No Iterations 13
smoothSolver:  Solving for Uz, Initial residual = 0.16648793, Final residual = 3.3758057e-09, No Iterations 14
smoothSolver:  Solving for p, Initial residual = 0.6694319, Final residual = 0.46521402, No Iterations 1000
smoothSolver:  Solving for p, Initial residual = 0.49135403, Final residual = 0.38799028, No Iterations 1000
time step continuity errors : sum local = 0.003633324, global = -0.0032959304, cumulative = -0.016479652
smoothSolver:  Solving for p, Initial residual = 0.39228391, Final residual = 0.36384109, No Iterations 1000
smoothSolver:  Solving for p, Initial residual = 0.36680206, Final residual = 0.36406442, No Iterations 1000
time step continuity errors : sum local = 0.0032959304, global = -0.0032959304, cumulative = -0.019775582
ExecutionTime = 16.79 s  ClockTime = 17 s

fieldMinMax minmaxdomain output:
    min(p) = 0 at location (-0.000525 0 0.216)
    max(p) = 46.98396 at location (0.00014395118 0.0014503614 0.0015)
    min(U) = (-0.0098181404 -0.03457286 0.75347079) at location (0.00039664566 0.0013170833 0.0015)
    max(U) = (0.028097924 0.002779653 1.2374904) at location (-0.00063579685 -4.7926765e-05 0.0015)

Time = 0.002

Courant Number mean: 0.044279702 max: 0.50633684
smoothSolver:  Solving for Ux, Initial residual = 0.21579857, Final residual = 4.4965501e-09, No Iterations 13
smoothSolver:  Solving for Uy, Initial residual = 0.21066477, Final residual = 4.1189871e-09, No Iterations 13
smoothSolver:  Solving for Uz, Initial residual = 0.11165539, Final residual = 7.5779298e-09, No Iterations 13
smoothSolver:  Solving for p, Initial residual = 0.51140067, Final residual = 0.39247672, No Iterations 1000
smoothSolver:  Solving for p, Initial residual = 0.4013061, Final residual = 0.36649794, No Iterations 1000
time step continuity errors : sum local = 0.0036129507, global = -0.0032959304, cumulative = -0.023071513
smoothSolver:  Solving for p, Initial residual = 0.33826435, Final residual = 0.32549259, No Iterations 1000
smoothSolver:  Solving for p, Initial residual = 0.32319776, Final residual = 0.32238596, No Iterations 1000
time step continuity errors : sum local = 0.0032959304, global = -0.0032959304, cumulative = -0.026367443
ExecutionTime = 22.52 s  ClockTime = 23 s

fieldMinMax minmaxdomain output:
    min(p) = 0 at location (-0.000525 0 0.216)
    max(p) = 43.394915 at location (-7.5e-05 1.9478047e-21 0.0135)
    min(U) = (-0.015638812 -0.053885787 1.1588182) at location (0.00033812783 0.0011454499 0.0015)
    max(U) = (0.02965289 -2.0753539e-05 1.3018783) at location (-0.000525 -6.8173165e-21 0.0015)

Time = 0.0025

Courant Number mean: 0.05897476 max: 0.53478354
smoothSolver:  Solving for Ux, Initial residual = 0.15852506, Final residual = 3.6969834e-09, No Iterations 13
smoothSolver:  Solving for Uy, Initial residual = 0.15410949, Final residual = 3.5497897e-09, No Iterations 13
smoothSolver:  Solving for Uz, Initial residual = 0.088458304, Final residual = 5.9457111e-09, No Iterations 13
smoothSolver:  Solving for p, Initial residual = 0.41715476, Final residual = 0.35697172, No Iterations 1000
smoothSolver:  Solving for p, Initial residual = 0.35648213, Final residual = 0.32413394, No Iterations 1000
time step continuity errors : sum local = 0.0035046627, global = -0.0032959304, cumulative = -0.029663373
smoothSolver:  Solving for p, Initial residual = 0.30641163, Final residual = 0.30063306, No Iterations 1000
smoothSolver:  Solving for p, Initial residual = 0.29544465, Final residual = 0.29502046, No Iterations 1000
time step continuity errors : sum local = 0.0032959304, global = -0.0032959304, cumulative = -0.032959304
ExecutionTime = 27.95 s  ClockTime = 28 s

fieldMinMax minmaxdomain output:
    min(p) = 0 at location (-0.000525 0 0.216)
    max(p) = 46.253976 at location (0.00014395118 0.0014503614 0.0015)
    min(U) = (-0.0055863646 -0.052196835 0.97868406) at location (0.00012574335 0.0012959064 0.0015)
    max(U) = (0.033056519 0.0073029993 1.3396605) at location (-0.00056208287 -0.00013923079 0.0015)

Time = 0.003

Courant Number mean: 0.072831076 max: 0.55249182
smoothSolver:  Solving for Ux, Initial residual = 0.11284422, Final residual = 7.3957701e-09, No Iterations 12
smoothSolver:  Solving for Uy, Initial residual = 0.1103139, Final residual = 7.3194748e-09, No Iterations 12
smoothSolver:  Solving for Uz, Initial residual = 0.072891592, Final residual = 5.0581927e-09, No Iterations 13
smoothSolver:  Solving for p, Initial residual = 0.34515222, Final residual = 0.3047157, No Iterations 1000
smoothSolver:  Solving for p, Initial residual = 0.30197527, Final residual = 0.28566689, No Iterations 1000
time step continuity errors : sum local = 0.0033723132, global = -0.0032959304, cumulative = -0.036255234
smoothSolver:  Solving for p, Initial residual = 0.2757463, Final residual = 0.2726165, No Iterations 1000
smoothSolver:  Solving for p, Initial residual = 0.26733105, Final residual = 0.26720352, No Iterations 1000
time step continuity errors : sum local = 0.0032959304, global = -0.0032959304, cumulative = -0.039551164
ExecutionTime = 34.07 s  ClockTime = 35 s

fieldMinMax minmaxdomain output:
    min(p) = 0 at location (-0.000525 0 0.216)
    max(p) = 45.235108 at location (-0.0011227589 0.00092118362 0.0015)
    min(U) = (-0.029033126 -0.05622448 1.3021358) at location (0.00049574271 0.00095086855 0.0015)
    max(U) = (0.040443642 0.0037641287 1.3670736) at location (-0.00063579685 -4.7926765e-05 0.0015)

Time = 0.0035

Courant Number mean: 0.086548568 max: 0.56634911
smoothSolver:  Solving for Ux, Initial residual = 0.097306652, Final residual = 7.0101465e-09, No Iterations 12
smoothSolver:  Solving for Uy, Initial residual = 0.094930364, Final residual = 6.8169754e-09, No Iterations 12
smoothSolver:  Solving for Uz, Initial residual = 0.064339957, Final residual = 4.4502314e-09, No Iterations 13
smoothSolver:  Solving for p, Initial residual = 0.28753782, Final residual = 0.27024554, No Iterations 1000
smoothSolver:  Solving for p, Initial residual = 0.26675705, Final residual = 0.25858557, No Iterations 1000
time step continuity errors : sum local = 0.0033282328, global = -0.0032959303, cumulative = -0.042847095
smoothSolver:  Solving for p, Initial residual = 0.25114124, Final residual = 0.25025838, No Iterations 1000
smoothSolver:  Solving for p, Initial residual = 0.24508279, Final residual = 0.24501315, No Iterations 1000
time step continuity errors : sum local = 0.00329593, global = -0.00329593, cumulative = -0.046143025
ExecutionTime = 42.8 s  ClockTime = 43 s

fieldMinMax minmaxdomain output:
    min(p) = 0 at location (-0.000525 0 0.216)
    max(p) = 46.909726 at location (0.00014395118 0.0014503614 0.0015)
    min(U) = (-0.0070489631 -0.066199077 1.2843696) at location (0.00010410184 0.0011123239 0.0015)
    max(U) = (0.040910215 0.019526918 1.3848079) at location (-0.00061610739 -0.00030459428 0.0015)

Time = 0.004

Courant Number mean: 0.099832706 max: 0.57679743
smoothSolver:  Solving for Ux, Initial residual = 0.079438298, Final residual = 5.110183e-09, No Iterations 12
smoothSolver:  Solving for Uy, Initial residual = 0.078059454, Final residual = 5.1545664e-09, No Iterations 12
smoothSolver:  Solving for Uz, Initial residual = 0.058975331, Final residual = 4.2282871e-09, No Iterations 13
smoothSolver:  Solving for p, Initial residual = 0.25030051, Final residual = 0.24024176, No Iterations 1000
smoothSolver:  Solving for p, Initial residual = 0.23626553, Final residual = 0.2340787, No Iterations 1000
time step continuity errors : sum local = 0.0032963523, global = -0.0032959258, cumulative = -0.04943895
smoothSolver:  Solving for p, Initial residual = 0.22924342, Final residual = 0.22897277, No Iterations 1000
smoothSolver:  Solving for p, Initial residual = 0.22442556, Final residual = 0.22440545, No Iterations 1000
time step continuity errors : sum local = 0.0032959112, global = -0.0032959112, cumulative = -0.052734862
ExecutionTime = 48.1 s  ClockTime = 49 s

fieldMinMax minmaxdomain output:
    min(p) = 0 at location (-0.000525 0 0.216)
    max(p) = 47.013849 at location (-0.0014503614 -0.00014395118 0.0015)
    min(U) = (-0.0071646373 -0.067796871 1.2942906) at location (0.00010410184 0.0011123239 0.0015)
    max(U) = (0.043134708 0.034475868 1.3981377) at location (-0.0006310689 -0.00050894412 0.0015)

Time = 0.0045

Courant Number mean: 0.11298487 max: 0.58393059
smoothSolver:  Solving for Ux, Initial residual = 0.06993313, Final residual = 4.5331041e-09, No Iterations 12
smoothSolver:  Solving for Uy, Initial residual = 0.06893432, Final residual = 4.5686517e-09, No Iterations 12
smoothSolver:  Solving for Uz, Initial residual = 0.055723888, Final residual = 4.0069795e-09, No Iterations 13
smoothSolver:  Solving for p, Initial residual = 0.22326303, Final residual = 0.21998153, No Iterations 1000
smoothSolver:  Solving for p, Initial residual = 0.21637724, Final residual = 0.21623063, No Iterations 1000
time step continuity errors : sum local = 0.0032957798, global = -0.0032957798, cumulative = -0.056030641
smoothSolver:  Solving for p, Initial residual = 0.21153669, Final residual = 0.21149598, No Iterations 1000
smoothSolver:  Solving for p, Initial residual = 0.20744117, Final residual = 0.20741989, No Iterations 1000
time step continuity errors : sum local = 0.0032955073, global = -0.0032955073, cumulative = -0.059326149
ExecutionTime = 52.95 s  ClockTime = 54 s

fieldMinMax minmaxdomain output:
    min(p) = 0 at location (-0.000525 0 0.216)
    max(p) = 47.940529 at location (-0.0014503614 -0.00014395118 0.0015)
    min(U) = (-0.0072358516 -0.068885029 1.302409) at location (0.00010410184 0.0011123239 0.0015)
    max(U) = (0.044066054 0.035203313 1.4099599) at location (-0.0006310689 -0.00050894412 0.0015)

Time = 0.005

Courant Number mean: 0.12587413 max: 0.58868026
smoothSolver:  Solving for Ux, Initial residual = 0.06107315, Final residual = 3.703975e-09, No Iterations 12
smoothSolver:  Solving for Uy, Initial residual = 0.06041426, Final residual = 3.8830148e-09, No Iterations 12
smoothSolver:  Solving for Uz, Initial residual = 0.053568445, Final residual = 3.9352815e-09, No Iterations 13
smoothSolver:  Solving for p, Initial residual = 0.20351352, Final residual = 0.20304141, No Iterations 1000
smoothSolver:  Solving for p, Initial residual = 0.19963291, Final residual = 0.1995826, No Iterations 1000
time step continuity errors : sum local = 0.0032936357, global = -0.0032936357, cumulative = -0.062619785
smoothSolver:  Solving for p, Initial residual = 0.19577482, Final residual = 0.1957119, No Iterations 1000
smoothSolver:  Solving for p, Initial residual = 0.1922051, Final residual = 0.19214206, No Iterations 1000
time step continuity errors : sum local = 0.0032912258, global = -0.0032912258, cumulative = -0.06591101
ExecutionTime = 58.2 s  ClockTime = 59 s

fieldMinMax minmaxdomain output:
    min(p) = 0 at location (-0.000525 0 0.216)
    max(p) = 48.386575 at location (-0.0014503614 -0.00014395118 0.0015)
    min(U) = (-0.0072860306 -0.069623366 1.309725) at location (0.00010410184 0.0011123239 0.0015)
    max(U) = (0.044729062 0.035732185 1.4189099) at location (-0.0006310689 -0.00050894412 0.0015)

Time = 0.0055

Courant Number mean: 0.13858948 max: 0.59196696
smoothSolver:  Solving for Ux, Initial residual = 0.055432375, Final residual = 3.2914306e-09, No Iterations 12
smoothSolver:  Solving for Uy, Initial residual = 0.054867254, Final residual = 3.4884405e-09, No Iterations 12
smoothSolver:  Solving for Uz, Initial residual = 0.052203781, Final residual = 3.86775e-09, No Iterations 13
smoothSolver:  Solving for p, Initial residual = 0.18850145, Final residual = 0.18822029, No Iterations 1000
smoothSolver:  Solving for p, Initial residual = 0.18520675, Final residual = 0.18502399, No Iterations 1000
time step continuity errors : sum local = 0.0032772303, global = -0.0032772303, cumulative = -0.069188241
smoothSolver:  Solving for p, Initial residual = 0.18157461, Final residual = 0.18136042, No Iterations 1000
smoothSolver:  Solving for p, Initial residual = 0.17832153, Final residual = 0.17809791, No Iterations 1000
time step continuity errors : sum local = 0.0032658899, global = -0.0032658899, cumulative = -0.07245413
ExecutionTime = 65.79 s  ClockTime = 66 s

fieldMinMax minmaxdomain output:
    min(p) = 0 at location (-0.000525 0 0.216)
    max(p) = 49.049136 at location (-0.0014503614 -0.00014395118 0.0015)
    min(U) = (-0.0073190725 -0.070108661 1.3156878) at location (0.00010410184 0.0011123239 0.0015)
    max(U) = (0.045142681 0.036056724 1.426178) at location (-0.0006310689 -0.00050894412 0.0015)

Time = 0.006

Courant Number mean: 0.15108354 max: 0.59407585
smoothSolver:  Solving for Ux, Initial residual = 0.050209861, Final residual = 2.9695695e-09, No Iterations 12
smoothSolver:  Solving for Uy, Initial residual = 0.049880556, Final residual = 3.1865934e-09, No Iterations 12
smoothSolver:  Solving for Uz, Initial residual = 0.051345154, Final residual = 3.8569081e-09, No Iterations 13
smoothSolver:  Solving for p, Initial residual = 0.17329281, Final residual = 0.17272339, No Iterations 1000
smoothSolver:  Solving for p, Initial residual = 0.17017541, Final residual = 0.16968017, No Iterations 1000
time step continuity errors : sum local = 0.0032044056, global = -0.0032044056, cumulative = -0.075658536
smoothSolver:  Solving for p, Initial residual = 0.16654104, Final residual = 0.1660224, No Iterations 1000
smoothSolver:  Solving for p, Initial residual = 0.16350847, Final residual = 0.16299023, No Iterations 1000
time step continuity errors : sum local = 0.0031732799, global = -0.0031732799, cumulative = -0.078831816
ExecutionTime = 71.69 s  ClockTime = 72 s

fieldMinMax minmaxdomain output:
    min(p) = 0 at location (-0.000525 0 0.216)
    max(p) = 49.577647 at location (-0.0014503614 -0.00014395118 0.0015)
    min(U) = (-0.0073416669 -0.070432779 1.320965) at location (0.00010410184 0.0011123239 0.0015)
    max(U) = (0.045403865 0.036263784 1.4323382) at location (-0.0006310689 -0.00050894412 0.0015)

Time = 0.0065

Courant Number mean: 0.16336281 max: 0.59552454
smoothSolver:  Solving for Ux, Initial residual = 0.044918189, Final residual = 9.8722301e-09, No Iterations 11
smoothSolver:  Solving for Uy, Initial residual = 0.044804563, Final residual = 2.9907495e-09, No Iterations 12
smoothSolver:  Solving for Uz, Initial residual = 0.051106612, Final residual = 3.8745362e-09, No Iterations 13
smoothSolver:  Solving for p, Initial residual = 0.15478711, Final residual = 0.15383435, No Iterations 1000
smoothSolver:  Solving for p, Initial residual = 0.15186958, Final residual = 0.15100883, No Iterations 1000
time step continuity errors : sum local = 0.0029986197, global = -0.0029986197, cumulative = -0.081830436
smoothSolver:  Solving for p, Initial residual = 0.14805226, Final residual = 0.1472233, No Iterations 1000
smoothSolver:  Solving for p, Initial residual = 0.14526835, Final residual = 0.14446269, No Iterations 1000
time step continuity errors : sum local = 0.0029445374, global = -0.0029445374, cumulative = -0.084774973
ExecutionTime = 77.32 s  ClockTime = 78 s

fieldMinMax minmaxdomain output:
    min(p) = 0 at location (-0.000525 0 0.216)
    max(p) = 50.143105 at location (-0.0014503614 -0.00014395118 0.0015)
    min(U) = (-0.0073575336 -0.070639222 1.3251674) at location (0.00010410184 0.0011123239 0.0015)
    max(U) = (0.045552156 0.036380748 1.4374243) at location (-0.0006310689 -0.00050894412 0.0015)

Time = 0.007

Courant Number mean: 0.17539084 max: 0.59643029
smoothSolver:  Solving for Ux, Initial residual = 0.039658348, Final residual = 9.3000768e-09, No Iterations 11
smoothSolver:  Solving for Uy, Initial residual = 0.039444699, Final residual = 9.8852181e-09, No Iterations 11
smoothSolver:  Solving for Uz, Initial residual = 0.051043133, Final residual = 3.8859539e-09, No Iterations 13
smoothSolver:  Solving for p, Initial residual = 0.12995454, Final residual = 0.12883176, No Iterations 1000
smoothSolver:  Solving for p, Initial residual = 0.12748129, Final residual = 0.12647131, No Iterations 1000
time step continuity errors : sum local = 0.0025942871, global = -0.0025942871, cumulative = -0.08736926
smoothSolver:  Solving for p, Initial residual = 0.12390598, Final residual = 0.12297579, No Iterations 1000
smoothSolver:  Solving for p, Initial residual = 0.12155118, Final residual = 0.12065982, No Iterations 1000
time step continuity errors : sum local = 0.002530555, global = -0.002530555, cumulative = -0.089899815
ExecutionTime = 82.48 s  ClockTime = 83 s

fieldMinMax minmaxdomain output:
    min(p) = 0 at location (-0.000525 0 0.216)
    max(p) = 50.674432 at location (-0.0014503614 -0.00014395118 0.0015)
    min(U) = (-0.0073686192 -0.070775073 1.3286674) at location (0.00010410184 0.0011123239 0.0015)
    max(U) = (0.04563107 0.036443258 1.4418423) at location (-0.0006310689 -0.00050894412 0.0015)

Time = 0.0075

Courant Number mean: 0.18714004 max: 0.59704696
smoothSolver:  Solving for Ux, Initial residual = 0.033824082, Final residual = 8.3302955e-09, No Iterations 11
smoothSolver:  Solving for Uy, Initial residual = 0.033195723, Final residual = 8.58103e-09, No Iterations 11
smoothSolver:  Solving for Uz, Initial residual = 0.051095975, Final residual = 3.8395167e-09, No Iterations 13
smoothSolver:  Solving for p, Initial residual = 0.098485017, Final residual = 0.097546597, No Iterations 1000
smoothSolver:  Solving for p, Initial residual = 0.096712625, Final residual = 0.095893693, No Iterations 1000
time step continuity errors : sum local = 0.0019952591, global = -0.0019952591, cumulative = -0.091895074
smoothSolver:  Solving for p, Initial residual = 0.09404252, Final residual = 0.093302944, No Iterations 1000
smoothSolver:  Solving for p, Initial residual = 0.092425107, Final residual = 0.091719811, No Iterations 1000
time step continuity errors : sum local = 0.0019436003, global = -0.0019436003, cumulative = -0.093838675
ExecutionTime = 88.29 s  ClockTime = 89 s

fieldMinMax minmaxdomain output:
    min(p) = 0 at location (-0.000525 0 0.216)
    max(p) = 51.198696 at location (-0.0014503614 -0.00014395118 0.0015)
    min(U) = (-0.0073769363 -0.070861053 1.3313505) at location (0.00010410184 0.0011123239 0.0015)
    max(U) = (0.045668323 0.036473185 1.4455026) at location (-0.0006310689 -0.00050894412 0.0015)

Time = 0.008

Courant Number mean: 0.19852605 max: 0.59743465
smoothSolver:  Solving for Ux, Initial residual = 0.029799282, Final residual = 6.8857865e-09, No Iterations 11
smoothSolver:  Solving for Uy, Initial residual = 0.029028133, Final residual = 6.8565971e-09, No Iterations 11
smoothSolver:  Solving for Uz, Initial residual = 0.050971766, Final residual = 3.6876883e-09, No Iterations 13
smoothSolver:  Solving for p, Initial residual = 0.063090204, Final residual = 0.062587001, No Iterations 1000
smoothSolver:  Solving for p, Initial residual = 0.062242942, Final residual = 0.061861511, No Iterations 1000
time step continuity errors : sum local = 0.001282276, global = -0.001282276, cumulative = -0.095120951
smoothSolver:  Solving for p, Initial residual = 0.061045702, Final residual = 0.060688069, No Iterations 1000
smoothSolver:  Solving for p, Initial residual = 0.060318302, Final residual = 0.059979791, No Iterations 1000
time step continuity errors : sum local = 0.0012581365, global = -0.0012581365, cumulative = -0.096379087
ExecutionTime = 93.55 s  ClockTime = 94 s

fieldMinMax minmaxdomain output:
    min(p) = 0 at location (-0.000525 0 0.216)
    max(p) = 51.713123 at location (-0.0014503614 -0.00014395118 0.0015)
    min(U) = (-0.007383131 -0.070918983 1.3334348) at location (0.00010410184 0.0011123239 0.0015)
    max(U) = (0.045683009 0.03648522 1.4486265) at location (-0.0006310689 -0.00050894412 0.0015)

Time = 0.0085

Courant Number mean: 0.20949506 max: 0.59770522
smoothSolver:  Solving for Ux, Initial residual = 0.030112473, Final residual = 5.430701e-09, No Iterations 11
smoothSolver:  Solving for Uy, Initial residual = 0.029736683, Final residual = 5.4600356e-09, No Iterations 11
smoothSolver:  Solving for Uz, Initial residual = 0.048647187, Final residual = 3.3351582e-09, No Iterations 13
smoothSolver:  Solving for p, Initial residual = 0.032647711, Final residual = 0.031171451, No Iterations 1000
smoothSolver:  Solving for p, Initial residual = 0.031130557, Final residual = 0.03082221, No Iterations 1000
time step continuity errors : sum local = 0.00062583728, global = -0.00056801044, cumulative = -0.096947098
smoothSolver:  Solving for p, Initial residual = 0.030615928, Final residual = 0.030192565, No Iterations 1000
smoothSolver:  Solving for p, Initial residual = 0.030123091, Final residual = 0.029917465, No Iterations 1000
time step continuity errors : sum local = 0.00061063649, global = -0.00057269176, cumulative = -0.097519789
ExecutionTime = 99.26 s  ClockTime = 100 s

fieldMinMax minmaxdomain output:
    min(p) = 0 at location (-0.000525 0 0.216)
    max(p) = 52.214506 at location (-0.0014503614 -0.00014395118 0.0015)
    min(U) = (-0.0073881843 -0.070958338 1.3349506) at location (0.00010410184 0.0011123239 0.0015)
    max(U) = (0.04568914 0.036490856 1.4511889) at location (-0.0006310689 -0.00050894412 0.0015)

Time = 0.009

Courant Number mean: 0.22002099 max: 0.59788972
smoothSolver:  Solving for Ux, Initial residual = 0.033080878, Final residual = 5.5192699e-09, No Iterations 11
smoothSolver:  Solving for Uy, Initial residual = 0.033811122, Final residual = 6.6393177e-09, No Iterations 11
smoothSolver:  Solving for Uz, Initial residual = 0.043976088, Final residual = 9.4987633e-09, No Iterations 12
smoothSolver:  Solving for p, Initial residual = 0.044549816, Final residual = 0.043729146, No Iterations 1000
smoothSolver:  Solving for p, Initial residual = 0.043757522, Final residual = 0.043027634, No Iterations 1000
time step continuity errors : sum local = 0.00086897636, global = 5.7767121e-05, cumulative = -0.097462022
smoothSolver:  Solving for p, Initial residual = 0.042197126, Final residual = 0.041556261, No Iterations 1000
smoothSolver:  Solving for p, Initial residual = 0.041581818, Final residual = 0.040954462, No Iterations 1000
time step continuity errors : sum local = 0.00082520373, global = 3.3455692e-05, cumulative = -0.097428567
ExecutionTime = 104.55 s  ClockTime = 105 s

fieldMinMax minmaxdomain output:
    min(p) = 0 at location (-0.000525 0 0.216)
    max(p) = 52.710235 at location (-0.0014503614 -0.00014395118 0.0015)
    min(U) = (-0.0073922657 -0.070988113 1.3360385) at location (0.00010410184 0.0011123239 0.0015)
    max(U) = (0.045693719 0.036495168 1.4533153) at location (-0.0006310689 -0.00050894412 0.0015)

Time = 0.0095

Courant Number mean: 0.23013763 max: 0.59803207
smoothSolver:  Solving for Ux, Initial residual = 0.036857282, Final residual = 6.6466678e-09, No Iterations 11
smoothSolver:  Solving for Uy, Initial residual = 0.038077099, Final residual = 7.7801573e-09, No Iterations 11
smoothSolver:  Solving for Uz, Initial residual = 0.038651792, Final residual = 8.1947148e-09, No Iterations 12
smoothSolver:  Solving for p, Initial residual = 0.060339711, Final residual = 0.05948918, No Iterations 1000
smoothSolver:  Solving for p, Initial residual = 0.059659451, Final residual = 0.058857721, No Iterations 1000
time step continuity errors : sum local = 0.0011935252, global = 0.00055321777, cumulative = -0.096875349
smoothSolver:  Solving for p, Initial residual = 0.058094141, Final residual = 0.057327817, No Iterations 1000
smoothSolver:  Solving for p, Initial residual = 0.057495496, Final residual = 0.056742634, No Iterations 1000
time step continuity errors : sum local = 0.0011426192, global = 0.00052107362, cumulative = -0.096354275
ExecutionTime = 109.65 s  ClockTime = 110 s

fieldMinMax minmaxdomain output:
    min(p) = 0 at location (-0.000525 0 0.216)
    max(p) = 53.195095 at location (-0.0014503614 -0.00014395118 0.0015)
    min(U) = (-0.0073957611 -0.07101219 1.3367721) at location (0.00010410184 0.0011123239 0.0015)
    max(U) = (0.045701735 0.036502351 1.4550336) at location (-0.0006310689 -0.00050894412 0.0015)

Time = 0.01

Courant Number mean: 0.23999042 max: 0.5981467
smoothSolver:  Solving for Ux, Initial residual = 0.038411396, Final residual = 7.1782186e-09, No Iterations 11
smoothSolver:  Solving for Uy, Initial residual = 0.039480555, Final residual = 8.1914861e-09, No Iterations 11
smoothSolver:  Solving for Uz, Initial residual = 0.034233734, Final residual = 7.2603004e-09, No Iterations 12
smoothSolver:  Solving for p, Initial residual = 0.072145278, Final residual = 0.071403538, No Iterations 1000
smoothSolver:  Solving for p, Initial residual = 0.071720015, Final residual = 0.070958459, No Iterations 1000
time step continuity errors : sum local = 0.0014308861, global = 0.00091841534, cumulative = -0.09543586
smoothSolver:  Solving for p, Initial residual = 0.070411554, Final residual = 0.069669393, No Iterations 1000
smoothSolver:  Solving for p, Initial residual = 0.06997302, Final residual = 0.069256126, No Iterations 1000
time step continuity errors : sum local = 0.0013828736, global = 0.00088722452, cumulative = -0.094548635
ExecutionTime = 114.16 s  ClockTime = 115 s

fieldMinMax minmaxdomain output:
    min(p) = 0 at location (-0.000525 0 0.216)
    max(p) = 53.674337 at location (-0.0014503614 -0.00014395118 0.0015)
    min(U) = (-0.0073987288 -0.071033645 1.3372453) at location (0.00010410184 0.0011123239 0.0015)
    max(U) = (0.045714429 0.036513133 1.4564257) at location (-0.0006310689 -0.00050894412 0.0015)

Time = 0.0105

Courant Number mean: 0.24964974 max: 0.59824821
smoothSolver:  Solving for Ux, Initial residual = 0.037441253, Final residual = 7.2309272e-09, No Iterations 11
smoothSolver:  Solving for Uy, Initial residual = 0.038227467, Final residual = 8.0669506e-09, No Iterations 11
smoothSolver:  Solving for Uz, Initial residual = 0.030798554, Final residual = 6.5831525e-09, No Iterations 12
smoothSolver:  Solving for p, Initial residual = 0.080290222, Final residual = 0.079680442, No Iterations 1000
smoothSolver:  Solving for p, Initial residual = 0.080136189, Final residual = 0.079481715, No Iterations 1000
time step continuity errors : sum local = 0.0015806173, global = 0.0011760207, cumulative = -0.093372615
smoothSolver:  Solving for p, Initial residual = 0.079200156, Final residual = 0.078540288, No Iterations 1000
smoothSolver:  Solving for p, Initial residual = 0.078959268, Final residual = 0.078319796, No Iterations 1000
time step continuity errors : sum local = 0.0015393581, global = 0.0011501755, cumulative = -0.092222439
ExecutionTime = 118.98 s  ClockTime = 120 s

fieldMinMax minmaxdomain output:
    min(p) = 0 at location (-0.000525 0 0.216)
    max(p) = 54.144445 at location (-0.0014503614 -0.00014395118 0.0015)
    min(U) = (-0.0074013003 -0.07105378 1.3375287) at location (0.00010410184 0.0011123239 0.0015)
    max(U) = (0.045732238 0.03652795 1.4575409) at location (-0.0006310689 -0.00050894412 0.0015)

Time = 0.011

Courant Number mean: 0.25910915 max: 0.59834278
smoothSolver:  Solving for Ux, Initial residual = 0.034970339, Final residual = 6.9770597e-09, No Iterations 11
smoothSolver:  Solving for Uy, Initial residual = 0.035511851, Final residual = 7.6620361e-09, No Iterations 11
smoothSolver:  Solving for Uz, Initial residual = 0.028228428, Final residual = 6.072432e-09, No Iterations 12
smoothSolver:  Solving for p, Initial residual = 0.085849739, Final residual = 0.085334375, No Iterations 1000
smoothSolver:  Solving for p, Initial residual = 0.085907072, Final residual = 0.085368596, No Iterations 1000
time step continuity errors : sum local = 0.0016635157, global = 0.0013545412, cumulative = -0.090867898
smoothSolver:  Solving for p, Initial residual = 0.085331118, Final residual = 0.084761546, No Iterations 1000
smoothSolver:  Solving for p, Initial residual = 0.085292581, Final residual = 0.08475215, No Iterations 1000
time step continuity errors : sum local = 0.0016295469, global = 0.0013350332, cumulative = -0.089532865
ExecutionTime = 123.75 s  ClockTime = 124 s

fieldMinMax minmaxdomain output:
    min(p) = 0 at location (-0.000525 0 0.216)
    max(p) = 54.604734 at location (-0.0014503614 -0.00014395118 0.0015)
    min(U) = (-0.0074034682 -0.071073652 1.3376928) at location (0.00010410184 0.0011123239 0.0015)
    max(U) = (0.045753989 0.036545732 1.458448) at location (-0.0006310689 -0.00050894412 0.0015)

Time = 0.0115

Courant Number mean: 0.26837374 max: 0.59843751
smoothSolver:  Solving for Ux, Initial residual = 0.032139484, Final residual = 6.5685567e-09, No Iterations 11
smoothSolver:  Solving for Uy, Initial residual = 0.032512103, Final residual = 7.1293631e-09, No Iterations 11
smoothSolver:  Solving for Uz, Initial residual = 0.026299776, Final residual = 5.6556591e-09, No Iterations 12
smoothSolver:  Solving for p, Initial residual = 0.089737911, Final residual = 0.089291363, No Iterations 1000
smoothSolver:  Solving for p, Initial residual = 0.089958032, Final residual = 0.089519227, No Iterations 1000
time step continuity errors : sum local = 0.0017004961, global = 0.0014790131, cumulative = -0.088053852
smoothSolver:  Solving for p, Initial residual = 0.089692663, Final residual = 0.089210739, No Iterations 1000
smoothSolver:  Solving for p, Initial residual = 0.089844573, Final residual = 0.089377384, No Iterations 1000
time step continuity errors : sum local = 0.0016727448, global = 0.0014650707, cumulative = -0.086588781
ExecutionTime = 128.65 s  ClockTime = 129 s

fieldMinMax minmaxdomain output:
    min(p) = 0 at location (-0.000525 0 0.216)
    max(p) = 55.042824 at location (-0.0014503614 -0.00014395118 0.0015)
    min(U) = (-0.0074051596 -0.071094486 1.3378144) at location (0.00010410184 0.0011123239 0.0015)
    max(U) = (0.045778032 0.036565117 1.4592214) at location (-0.0006310689 -0.00050894412 0.0015)

Time = 0.012

Courant Number mean: 0.27745644 max: 0.59854441
smoothSolver:  Solving for Ux, Initial residual = 0.029623752, Final residual = 6.1132736e-09, No Iterations 11
smoothSolver:  Solving for Uy, Initial residual = 0.029903769, Final residual = 6.5616531e-09, No Iterations 11
smoothSolver:  Solving for Uz, Initial residual = 0.024807025, Final residual = 5.2923895e-09, No Iterations 12
smoothSolver:  Solving for p, Initial residual = 0.092631527, Final residual = 0.092231902, No Iterations 1000
smoothSolver:  Solving for p, Initial residual = 0.092981891, Final residual = 0.092606558, No Iterations 1000
time step continuity errors : sum local = 0.00170779, global = 0.0015680455, cumulative = -0.085020736
smoothSolver:  Solving for p, Initial residual = 0.092952867, Final residual = 0.09255395, No Iterations 1000
smoothSolver:  Solving for p, Initial residual = 0.093280247, Final residual = 0.092888756, No Iterations 1000
time step continuity errors : sum local = 0.0016854871, global = 0.0015583228, cumulative = -0.083462413
ExecutionTime = 133.61 s  ClockTime = 134 s

fieldMinMax minmaxdomain output:
    min(p) = 0 at location (-0.000525 0 0.216)
    max(p) = 55.429811 at location (-0.0014503614 -0.00014395118 0.0015)
    min(U) = (-0.0074061155 -0.071118427 1.3379889) at location (0.00010410184 0.0011123239 0.0015)
    max(U) = (0.045801662 0.036583763 1.459962) at location (-0.0006310689 -0.00050894412 0.0015)

Time = 0.0125

Courant Number mean: 0.28636815 max: 0.59868609
smoothSolver:  Solving for Ux, Initial residual = 0.027594718, Final residual = 5.6904529e-09, No Iterations 11
smoothSolver:  Solving for Uy, Initial residual = 0.027836814, Final residual = 6.0340682e-09, No Iterations 11
smoothSolver:  Solving for Uz, Initial residual = 0.023640686, Final residual = 4.963341e-09, No Iterations 12
smoothSolver:  Solving for p, Initial residual = 0.095007057, Final residual = 0.094664715, No Iterations 1000
smoothSolver:  Solving for p, Initial residual = 0.095492417, Final residual = 0.095171958, No Iterations 1000
time step continuity errors : sum local = 0.0016984256, global = 0.0016341657, cumulative = -0.081828247
smoothSolver:  Solving for p, Initial residual = 0.095653828, Final residual = 0.095322673, No Iterations 1000
smoothSolver:  Solving for p, Initial residual = 0.096134748, Final residual = 0.095810552, No Iterations 1000
time step continuity errors : sum local = 0.0016803567, global = 0.001627392, cumulative = -0.080200855
ExecutionTime = 138.62 s  ClockTime = 139 s

fieldMinMax minmaxdomain output:
    min(p) = 0 at location (-0.000525 0 0.216)
    max(p) = 55.702793 at location (-0.00014395118 0.0014503614 0.0015)
    min(U) = (-0.0074058492 -0.071148649 1.338334) at location (0.00010410184 0.0011123239 0.0015)
    max(U) = (0.045821144 0.036598508 1.4607881) at location (-0.0006310689 -0.00050894412 0.0015)

Time = 0.013

Courant Number mean: 0.29510828 max: 0.59889779
smoothSolver:  Solving for Ux, Initial residual = 0.025998068, Final residual = 5.3017055e-09, No Iterations 11
smoothSolver:  Solving for Uy, Initial residual = 0.026218389, Final residual = 5.5533894e-09, No Iterations 11
smoothSolver:  Solving for Uz, Initial residual = 0.022575533, Final residual = 4.6587634e-09, No Iterations 12
smoothSolver:  Solving for p, Initial residual = 0.097637355, Final residual = 0.097383462, No Iterations 1000
smoothSolver:  Solving for p, Initial residual = 0.098288876, Final residual = 0.098068728, No Iterations 1000
time step continuity errors : sum local = 0.001690618, global = 0.0016853373, cumulative = -0.078515518
smoothSolver:  Solving for p, Initial residual = 0.098765165, Final residual = 0.098566737, No Iterations 1000
smoothSolver:  Solving for p, Initial residual = 0.099468692, Final residual = 0.099315182, No Iterations 1000
time step continuity errors : sum local = 0.001680759, global = 0.0016805328, cumulative = -0.076834985
ExecutionTime = 143.77 s  ClockTime = 145 s

fieldMinMax minmaxdomain output:
    min(p) = 0 at location (-0.000525 0 0.216)
    max(p) = 55.757196 at location (-0.00014395118 -0.0014503614 0.0015)
    min(U) = (-0.0074036442 -0.071188262 1.3389593) at location (0.00010410184 0.0011123239 0.0015)
    max(U) = (0.045831412 0.036605148 1.4618018) at location (-0.0006310689 -0.00050894412 0.0015)

Time = 0.0135

Courant Number mean: 0.30365127 max: 0.59921823
smoothSolver:  Solving for Ux, Initial residual = 0.024733138, Final residual = 4.9403982e-09, No Iterations 11
smoothSolver:  Solving for Uy, Initial residual = 0.024924224, Final residual = 5.1067046e-09, No Iterations 11
smoothSolver:  Solving for Uz, Initial residual = 0.021449156, Final residual = 4.3610787e-09, No Iterations 12
smoothSolver:  Solving for p, Initial residual = 0.10303857, Final residual = 0.10295369, No Iterations 1000
smoothSolver:  Solving for p, Initial residual = 0.10396486, Final residual = 0.10390342, No Iterations 1000
time step continuity errors : sum local = 0.0017264802, global = 0.0017264802, cumulative = -0.075108505
smoothSolver:  Solving for p, Initial residual = 0.10487404, Final residual = 0.10479883, No Iterations 1000
smoothSolver:  Solving for p, Initial residual = 0.10582287, Final residual = 0.10575201, No Iterations 1000
time step continuity errors : sum local = 0.0017229692, global = 0.0017229692, cumulative = -0.073385536
ExecutionTime = 148.76 s  ClockTime = 150 s

fieldMinMax minmaxdomain output:
    min(p) = 0 at location (-0.000525 0 0.216)
    max(p) = 55.451542 at location (-0.00014395118 -0.0014503614 0.0015)
    min(U) = (-0.0073987164 -0.071238332 1.339917) at location (0.00010410184 0.0011123239 0.0015)
    max(U) = (0.04582651 0.036598935 1.463034) at location (-0.0006310689 -0.00050894412 0.0015)

Time = 0.014

Courant Number mean: 0.31192726 max: 0.59970011
smoothSolver:  Solving for Ux, Initial residual = 0.023675175, Final residual = 4.6121199e-09, No Iterations 11
smoothSolver:  Solving for Uy, Initial residual = 0.023814312, Final residual = 4.6966154e-09, No Iterations 11
smoothSolver:  Solving for Uz, Initial residual = 0.020138718, Final residual = 4.0470919e-09, No Iterations 12
smoothSolver:  Solving for p, Initial residual = 0.10924446, Final residual = 0.10917027, No Iterations 1000
smoothSolver:  Solving for p, Initial residual = 0.11029874, Final residual = 0.1102497, No Iterations 1000
time step continuity errors : sum local = 0.0017606237, global = 0.0017606237, cumulative = -0.071624912
smoothSolver:  Solving for p, Initial residual = 0.11136069, Final residual = 0.11130158, No Iterations 1000
smoothSolver:  Solving for p, Initial residual = 0.11245949, Final residual = 0.11240378, No Iterations 1000
time step continuity errors : sum local = 0.0017579678, global = 0.0017579678, cumulative = -0.069866944
ExecutionTime = 153.87 s  ClockTime = 155 s

fieldMinMax minmaxdomain output:
    min(p) = 0 at location (-0.000525 0 0.216)
    max(p) = 54.634416 at location (-0.00014395118 -0.0014503614 0.0015)
    min(U) = (-0.0073903052 -0.071295881 1.3411522) at location (0.00010410184 0.0011123239 0.0015)
    max(U) = (0.045800748 0.036575456 1.4643986) at location (-0.0006310689 -0.00050894412 0.0015)

Time = 0.0145

Courant Number mean: 0.31980243 max: 0.60037379
smoothSolver:  Solving for Ux, Initial residual = 0.022720751, Final residual = 4.3162302e-09, No Iterations 11
smoothSolver:  Solving for Uy, Initial residual = 0.022792469, Final residual = 4.3392437e-09, No Iterations 11
smoothSolver:  Solving for Uz, Initial residual = 0.018543047, Final residual = 3.6985094e-09, No Iterations 12
smoothSolver:  Solving for p, Initial residual = 0.11576583, Final residual = 0.11569901, No Iterations 1000
smoothSolver:  Solving for p, Initial residual = 0.11695462, Final residual = 0.11691407, No Iterations 1000
time step continuity errors : sum local = 0.0017896694, global = 0.0017896694, cumulative = -0.068077275
smoothSolver:  Solving for p, Initial residual = 0.1181775, Final residual = 0.11812948, No Iterations 1000
smoothSolver:  Solving for p, Initial residual = 0.11943775, Final residual = 0.11939243, No Iterations 1000
time step continuity errors : sum local = 0.0017875919, global = 0.0017875919, cumulative = -0.066289683
ExecutionTime = 159.01 s  ClockTime = 160 s

fieldMinMax minmaxdomain output:
    min(p) = 0 at location (-0.000525 0 0.216)
    max(p) = 53.18431 at location (-0.00014395118 -0.0014503614 0.0015)
    min(U) = (-0.0073782913 -0.071353582 1.3424975) at location (0.00010410184 0.0011123239 0.0015)
    max(U) = (0.045750339 0.036532092 1.465698) at location (-0.0006310689 -0.00050894412 0.0015)

Time = 0.015

Courant Number mean: 0.32709518 max: 0.60114067
smoothSolver:  Solving for Ux, Initial residual = 0.021752502, Final residual = 4.0440884e-09, No Iterations 11
smoothSolver:  Solving for Uy, Initial residual = 0.021760935, Final residual = 4.0311426e-09, No Iterations 11
smoothSolver:  Solving for Uz, Initial residual = 0.0165893, Final residual = 3.3028416e-09, No Iterations 12
smoothSolver:  Solving for p, Initial residual = 0.12275547, Final residual = 0.12269454, No Iterations 1000
smoothSolver:  Solving for p, Initial residual = 0.12409431, Final residual = 0.12405987, No Iterations 1000
time step continuity errors : sum local = 0.0018148514, global = 0.0018148514, cumulative = -0.064474831
smoothSolver:  Solving for p, Initial residual = 0.12549169, Final residual = 0.12545159, No Iterations 1000
smoothSolver:  Solving for p, Initial residual = 0.12693382, Final residual = 0.12689586, No Iterations 1000
time step continuity errors : sum local = 0.0018131792, global = 0.0018131792, cumulative = -0.062661652
ExecutionTime = 164.45 s  ClockTime = 165 s

fieldMinMax minmaxdomain output:
    min(p) = 0 at location (-0.000525 0 0.216)
    max(p) = 51.046715 at location (-0.00014395118 -0.0014503614 0.0015)
    min(U) = (-0.0073631037 -0.071401481 1.3437174) at location (0.00010410184 0.0011123239 0.0015)
    max(U) = (0.045675162 0.036469141 1.4666808) at location (-0.0006310689 -0.00050894412 0.0015)

Time = 0.0155

Courant Number mean: 0.33360503 max: 0.60190346
smoothSolver:  Solving for Ux, Initial residual = 0.020645303, Final residual = 3.7793561e-09, No Iterations 11
smoothSolver:  Solving for Uy, Initial residual = 0.020609746, Final residual = 3.7554206e-09, No Iterations 11
smoothSolver:  Solving for Uz, Initial residual = 0.014287463, Final residual = 9.6327846e-09, No Iterations 11
smoothSolver:  Solving for p, Initial residual = 0.13029878, Final residual = 0.13024384, No Iterations 1000
smoothSolver:  Solving for p, Initial residual = 0.13181478, Final residual = 0.13178497, No Iterations 1000
time step continuity errors : sum local = 0.0018370072, global = 0.0018370072, cumulative = -0.060824645
smoothSolver:  Solving for p, Initial residual = 0.1334078, Final residual = 0.1333734, No Iterations 1000
smoothSolver:  Solving for p, Initial residual = 0.13505525, Final residual = 0.13502271, No Iterations 1000
time step continuity errors : sum local = 0.0018356293, global = 0.0018356293, cumulative = -0.058989016
ExecutionTime = 169.42 s  ClockTime = 170 s

fieldMinMax minmaxdomain output:
    min(p) = 0 at location (-0.000525 0 0.216)
    max(p) = 48.252902 at location (-0.00014395118 -0.0014503614 0.0015)
    min(U) = (-0.0073458581 -0.071430148 1.3445852) at location (0.00010410184 0.0011123239 0.0015)
    max(U) = (0.045579476 0.036390359 1.4671282) at location (-0.0006310689 -0.00050894412 0.0015)

Time = 0.016

Courant Number mean: 0.3391373 max: 0.607352
smoothSolver:  Solving for Ux, Initial residual = 0.019241516, Final residual = 3.5127449e-09, No Iterations 11
smoothSolver:  Solving for Uy, Initial residual = 0.019179818, Final residual = 3.4913059e-09, No Iterations 11
smoothSolver:  Solving for Uz, Initial residual = 0.01173702, Final residual = 8.0508323e-09, No Iterations 11
smoothSolver:  Solving for p, Initial residual = 0.13844665, Final residual = 0.13839958, No Iterations 1000
smoothSolver:  Solving for p, Initial residual = 0.14017866, Final residual = 0.14015258, No Iterations 1000
time step continuity errors : sum local = 0.0018567268, global = 0.0018567268, cumulative = -0.057132289
smoothSolver:  Solving for p, Initial residual = 0.14199834, Final residual = 0.14196791, No Iterations 1000
smoothSolver:  Solving for p, Initial residual = 0.14387638, Final residual = 0.14384769, No Iterations 1000
time step continuity errors : sum local = 0.0018555691, global = 0.0018555691, cumulative = -0.05527672
ExecutionTime = 174.39 s  ClockTime = 175 s

fieldMinMax minmaxdomain output:
    min(p) = 0 at location (-0.000525 0 0.216)
    max(p) = 44.914681 at location (-0.00014395118 -0.0014503614 0.0015)
    min(U) = (-0.0073281474 -0.071433586 1.3449511) at location (0.00010410184 0.0011123239 0.0015)
    max(U) = (0.045471438 0.036302502 1.4669236) at location (-0.0006310689 -0.00050894412 0.0015)

Time = 0.0165

Courant Number mean: 0.34353025 max: 0.61817646
smoothSolver:  Solving for Ux, Initial residual = 0.01741394, Final residual = 3.2397959e-09, No Iterations 11
smoothSolver:  Solving for Uy, Initial residual = 0.017341176, Final residual = 3.2224857e-09, No Iterations 11
smoothSolver:  Solving for Uz, Initial residual = 0.0091138515, Final residual = 6.4128019e-09, No Iterations 11
smoothSolver:  Solving for p, Initial residual = 0.14730935, Final residual = 0.14727159, No Iterations 1000
smoothSolver:  Solving for p, Initial residual = 0.14930237, Final residual = 0.14927925, No Iterations 1000
time step continuity errors : sum local = 0.0018744338, global = 0.0018744338, cumulative = -0.053402286
smoothSolver:  Solving for p, Initial residual = 0.15137381, Final residual = 0.15134595, No Iterations 1000
smoothSolver:  Solving for p, Initial residual = 0.15350776, Final residual = 0.15348171, No Iterations 1000
time step continuity errors : sum local = 0.0018734398, global = 0.0018734398, cumulative = -0.051528846
ExecutionTime = 179.16 s  ClockTime = 180 s

fieldMinMax minmaxdomain output:
    min(p) = 0 at location (-0.000525 0 0.216)
    max(p) = 41.200214 at location (-0.00014395118 -0.0014503614 0.0015)
    min(U) = (-0.0073117285 -0.071410762 1.3447765) at location (0.00010410184 0.0011123239 0.0015)
    max(U) = (0.045361478 0.036213995 1.4660815) at location (-0.0006310689 -0.00050894412 0.0015)

Time = 0.017

Courant Number mean: 0.34667203 max: 0.628331
smoothSolver:  Solving for Ux, Initial residual = 0.015134324, Final residual = 2.9450767e-09, No Iterations 11
smoothSolver:  Solving for Uy, Initial residual = 0.015051618, Final residual = 2.9238779e-09, No Iterations 11
smoothSolver:  Solving for Uz, Initial residual = 0.006742836, Final residual = 4.7829618e-09, No Iterations 11
smoothSolver:  Solving for p, Initial residual = 0.15705072, Final residual = 0.15702337, No Iterations 1000
smoothSolver:  Solving for p, Initial residual = 0.15934007, Final residual = 0.15931806, No Iterations 1000
time step continuity errors : sum local = 0.0018904096, global = 0.0018904096, cumulative = -0.049638437
smoothSolver:  Solving for p, Initial residual = 0.16168761, Final residual = 0.16166147, No Iterations 1000
smoothSolver:  Solving for p, Initial residual = 0.164108, Final residual = 0.16408318, No Iterations 1000
time step continuity errors : sum local = 0.0018895238, global = 0.0018895238, cumulative = -0.047748913
ExecutionTime = 183.88 s  ClockTime = 185 s

fieldMinMax minmaxdomain output:
    min(p) = 0 at location (-0.000525 0 0.216)
    max(p) = 37.301126 at location (-0.00014395118 -0.0014503614 0.0015)
    min(U) = (-0.0072981268 -0.071365464 1.3441275) at location (0.00010410184 0.0011123239 0.0015)
    max(U) = (0.045260165 0.036133231 1.4647316) at location (-0.0006310689 -0.00050894412 0.0015)

Time = 0.0175

Courant Number mean: 0.34851235 max: 0.63785233
smoothSolver:  Solving for Ux, Initial residual = 0.012508045, Final residual = 9.5579633e-09, No Iterations 10
smoothSolver:  Solving for Uy, Initial residual = 0.012396914, Final residual = 9.5507871e-09, No Iterations 10
smoothSolver:  Solving for Uz, Initial residual = 0.0050600472, Final residual = 3.2550884e-09, No Iterations 11
smoothSolver:  Solving for p, Initial residual = 0.16779451, Final residual = 0.16777294, No Iterations 1000
smoothSolver:  Solving for p, Initial residual = 0.17040391, Final residual = 0.17038089, No Iterations 1000
time step continuity errors : sum local = 0.0019047634, global = 0.0019047634, cumulative = -0.045844149
smoothSolver:  Solving for p, Initial residual = 0.17306028, Final residual = 0.17303387, No Iterations 1000
smoothSolver:  Solving for p, Initial residual = 0.1758095, Final residual = 0.17578387, No Iterations 1000
time step continuity errors : sum local = 0.0019039108, global = 0.0019039108, cumulative = -0.043940239
ExecutionTime = 188.88 s  ClockTime = 190 s

fieldMinMax minmaxdomain output:
    min(p) = 0 at location (-0.000525 0 0.216)
    max(p) = 33.401271 at location (-0.00014395118 -0.0014503614 0.0015)
    min(U) = (-0.0072883992 -0.071304818 1.3431415) at location (0.00010410184 0.0011123239 0.0015)
    max(U) = (0.045176311 0.036067101 1.4630742) at location (-0.0006310689 -0.00050894412 0.0015)

Time = 0.018

Courant Number mean: 0.34907073 max: 0.64676318
smoothSolver:  Solving for Ux, Initial residual = 0.009948054, Final residual = 8.291646e-09, No Iterations 10
smoothSolver:  Solving for Uy, Initial residual = 0.0098015142, Final residual = 8.1961996e-09, No Iterations 10
smoothSolver:  Solving for Uz, Initial residual = 0.0045393095, Final residual = 7.136591e-09, No Iterations 10
smoothSolver:  Solving for p, Initial residual = 0.179684, Final residual = 0.17965135, No Iterations 1000
smoothSolver:  Solving for p, Initial residual = 0.18263477, Final residual = 0.18260737, No Iterations 1000
time step continuity errors : sum local = 0.0019173279, global = 0.0019173279, cumulative = -0.042022911
smoothSolver:  Solving for p, Initial residual = 0.18564341, Final residual = 0.18561292, No Iterations 1000
smoothSolver:  Solving for p, Initial residual = 0.18877646, Final residual = 0.18874633, No Iterations 1000
time step continuity errors : sum local = 0.0019163889, global = 0.0019163889, cumulative = -0.040106522
ExecutionTime = 193.94 s  ClockTime = 195 s

fieldMinMax minmaxdomain output:
    min(p) = 0 at location (-0.000525 0 0.216)
    max(p) = 29.65373 at location (-0.00014395118 -0.0014503614 0.0015)
    min(U) = (-0.0072830176 -0.071237307 1.3419841) at location (0.00010410184 0.0011123239 0.0015)
    max(U) = (0.045115766 0.036020057 1.4613292) at location (-0.0006310689 -0.00050894412 0.0015)

Time = 0.0185

Courant Number mean: 0.34841962 max: 0.65506368
smoothSolver:  Solving for Ux, Initial residual = 0.0081971806, Final residual = 7.1791905e-09, No Iterations 10
smoothSolver:  Solving for Uy, Initial residual = 0.0080463002, Final residual = 7.0389781e-09, No Iterations 10
smoothSolver:  Solving for Uz, Initial residual = 0.0053679226, Final residual = 6.2815746e-09, No Iterations 10
smoothSolver:  Solving for p, Initial residual = 0.19284877, Final residual = 0.19279638, No Iterations 1000
smoothSolver:  Solving for p, Initial residual = 0.19621624, Final residual = 0.19617831, No Iterations 1000
time step continuity errors : sum local = 0.0019274729, global = 0.0019274729, cumulative = -0.038179049
smoothSolver:  Solving for p, Initial residual = 0.19966352, Final residual = 0.19962243, No Iterations 1000
smoothSolver:  Solving for p, Initial residual = 0.20328206, Final residual = 0.2032408, No Iterations 1000
time step continuity errors : sum local = 0.0019262602, global = 0.0019262602, cumulative = -0.036252789
ExecutionTime = 198.95 s  ClockTime = 200 s

fieldMinMax minmaxdomain output:
    min(p) = 0 at location (-0.000525 0 0.216)
    max(p) = 26.168628 at location (-0.00014395118 -0.0014503614 0.0015)
    min(U) = (-0.0072818852 -0.071170976 1.3408115) at location (0.00010410184 0.0011123239 0.0015)
    max(U) = (0.045081026 0.035993852 1.4596916) at location (-0.0006310689 -0.00050894412 0.0015)

Time = 0.019

Courant Number mean: 0.34667101 max: 0.66271582
smoothSolver:  Solving for Ux, Initial residual = 0.0076148887, Final residual = 6.4361689e-09, No Iterations 10
smoothSolver:  Solving for Uy, Initial residual = 0.0074987551, Final residual = 6.2843949e-09, No Iterations 10
smoothSolver:  Solving for Uz, Initial residual = 0.0065413045, Final residual = 7.2805225e-09, No Iterations 10
smoothSolver:  Solving for p, Initial residual = 0.20754315, Final residual = 0.2074663, No Iterations 1000
smoothSolver:  Solving for p, Initial residual = 0.21144268, Final residual = 0.21138375, No Iterations 1000
time step continuity errors : sum local = 0.0019338624, global = 0.0019338624, cumulative = -0.034318926
smoothSolver:  Solving for p, Initial residual = 0.21542745, Final residual = 0.21536507, No Iterations 1000
smoothSolver:  Solving for p, Initial residual = 0.21964124, Final residual = 0.21957818, No Iterations 1000
time step continuity errors : sum local = 0.0019321134, global = 0.0019321134, cumulative = -0.032386813
ExecutionTime = 203.8 s  ClockTime = 205 s

fieldMinMax minmaxdomain output:
    min(p) = 0 at location (-0.000525 0 0.216)
    max(p) = 23.010957 at location (-0.00014395118 -0.0014503614 0.0015)
    min(U) = (-0.0072844624 -0.071112182 1.3397448) at location (0.00010410184 0.0011123239 0.0015)
    max(U) = (0.045071525 0.035987826 1.4583047) at location (-0.0006310689 -0.00050894412 0.0015)

Time = 0.0195

Courant Number mean: 0.34396 max: 0.66962224
smoothSolver:  Solving for Ux, Initial residual = 0.0078018463, Final residual = 6.052269e-09, No Iterations 10
smoothSolver:  Solving for Uy, Initial residual = 0.0077560033, Final residual = 5.9385737e-09, No Iterations 10
smoothSolver:  Solving for Uz, Initial residual = 0.0076735327, Final residual = 8.7444302e-09, No Iterations 10
smoothSolver:  Solving for p, Initial residual = 0.22398032, Final residual = 0.22386547, No Iterations 1000
smoothSolver:  Solving for p, Initial residual = 0.2285368, Final residual = 0.22844227, No Iterations 1000
time step continuity errors : sum local = 0.0019342363, global = 0.0019342363, cumulative = -0.030452577
smoothSolver:  Solving for p, Initial residual = 0.23316719, Final residual = 0.23306827, No Iterations 1000
smoothSolver:  Solving for p, Initial residual = 0.23809981, Final residual = 0.23799972, No Iterations 1000
time step continuity errors : sum local = 0.0019316374, global = 0.0019316374, cumulative = -0.028520939
ExecutionTime = 208.91 s  ClockTime = 210 s

fieldMinMax minmaxdomain output:
    min(p) = 0 at location (-0.000525 0 0.216)
    max(p) = 20.205754 at location (-0.00014395118 -0.0014503614 0.0015)
    min(U) = (-0.0072899407 -0.071064994 1.33886) at location (0.00010410184 0.0011123239 0.0015)
    max(U) = (0.045084368 0.035999508 1.4572498) at location (-0.0006310689 -0.00050894412 0.0015)

Time = 0.02

Courant Number mean: 0.34043022 max: 0.67560768
smoothSolver:  Solving for Ux, Initial residual = 0.0082989544, Final residual = 5.8466298e-09, No Iterations 10
smoothSolver:  Solving for Uy, Initial residual = 0.0083084607, Final residual = 5.7443789e-09, No Iterations 10
smoothSolver:  Solving for Uz, Initial residual = 0.0086842174, Final residual = 2.9918194e-09, No Iterations 11
smoothSolver:  Solving for p, Initial residual = 0.24234793, Final residual = 0.24217943, No Iterations 1000
smoothSolver:  Solving for p, Initial residual = 0.24770418, Final residual = 0.24755568, No Iterations 1000
time step continuity errors : sum local = 0.0019253453, global = 0.0019253453, cumulative = -0.026595594
smoothSolver:  Solving for p, Initial residual = 0.25310635, Final residual = 0.25295151, No Iterations 1000
smoothSolver:  Solving for p, Initial residual = 0.25890877, Final residual = 0.25875262, No Iterations 1000
time step continuity errors : sum local = 0.0019215943, global = 0.0019215943, cumulative = -0.024674
ExecutionTime = 214.13 s  ClockTime = 215 s

fieldMinMax minmaxdomain output:
    min(p) = 0 at location (-0.000525 0 0.216)
    max(p) = 17.747338 at location (-0.00014395118 -0.0014503614 0.0015)
    min(U) = (-0.007297417 -0.071031181 1.3381886) at location (0.00010410184 0.0011123239 0.0015)
    max(U) = (0.045115225 0.036025343 1.4565505) at location (-0.0006310689 -0.00050894412 0.0015)

Time = 0.0205

Courant Number mean: 0.33622285 max: 0.68041072
smoothSolver:  Solving for Ux, Initial residual = 0.0087940502, Final residual = 5.6494157e-09, No Iterations 10
smoothSolver:  Solving for Uy, Initial residual = 0.0088328507, Final residual = 5.5539619e-09, No Iterations 10
smoothSolver:  Solving for Uz, Initial residual = 0.0095711785, Final residual = 3.4957719e-09, No Iterations 11
smoothSolver:  Solving for p, Initial residual = 0.26280637, Final residual = 0.26256857, No Iterations 1000
smoothSolver:  Solving for p, Initial residual = 0.26913347, Final residual = 0.26891141, No Iterations 1000
time step continuity errors : sum local = 0.0019031592, global = 0.0019031592, cumulative = -0.022770841
smoothSolver:  Solving for p, Initial residual = 0.27546384, Final residual = 0.27523178, No Iterations 1000
smoothSolver:  Solving for p, Initial residual = 0.28232063, Final residual = 0.28208773, No Iterations 1000
time step continuity errors : sum local = 0.0018980529, global = 0.0018980529, cumulative = -0.020872788
ExecutionTime = 219.92 s  ClockTime = 221 s

fieldMinMax minmaxdomain output:
    min(p) = 0 at location (-0.000525 0 0.216)
    max(p) = 15.609667 at location (-0.00014395118 -0.0014503614 0.0015)
    min(U) = (-0.0073060294 -0.071010582 1.3377274) at location (0.00010410184 0.0011123239 0.0015)
    max(U) = (0.045159188 0.036061374 1.4561855) at location (-0.0006310689 -0.00050894412 0.0015)

Time = 0.021

Courant Number mean: 0.33146948 max: 0.68369649
smoothSolver:  Solving for Ux, Initial residual = 0.0091320744, Final residual = 5.3976414e-09, No Iterations 10
smoothSolver:  Solving for Uy, Initial residual = 0.0091758739, Final residual = 5.293788e-09, No Iterations 10
smoothSolver:  Solving for Uz, Initial residual = 0.010363637, Final residual = 4.0238252e-09, No Iterations 11
smoothSolver:  Solving for p, Initial residual = 0.28548655, Final residual = 0.2851668, No Iterations 1000
smoothSolver:  Solving for p, Initial residual = 0.29299866, Final residual = 0.29268571, No Iterations 1000
time step continuity errors : sum local = 0.0018633867, global = 0.0018633867, cumulative = -0.019009401
smoothSolver:  Solving for p, Initial residual = 0.30045812, Final residual = 0.30012881, No Iterations 1000
smoothSolver:  Solving for p, Initial residual = 0.30859655, Final residual = 0.30826767, No Iterations 1000
time step continuity errors : sum local = 0.0018569053, global = 0.0018569053, cumulative = -0.017152496
ExecutionTime = 224.86 s  ClockTime = 226 s

fieldMinMax minmaxdomain output:
    min(p) = 0 at location (-0.000525 0 0.216)
    max(p) = 13.75571 at location (-0.00014395118 -0.0014503614 0.0015)
    min(U) = (-0.0073150424 -0.071001692 1.3374499) at location (0.00010410184 0.0011123239 0.0015)
    max(U) = (0.045211455 0.03610377 1.4561047) at location (-0.0006310689 -0.00050894412 0.0015)

Time = 0.0215

Courant Number mean: 0.32628836 max: 0.68509495
smoothSolver:  Solving for Ux, Initial residual = 0.0092253244, Final residual = 5.0853146e-09, No Iterations 10
smoothSolver:  Solving for Uy, Initial residual = 0.0092530007, Final residual = 4.9711468e-09, No Iterations 10
smoothSolver:  Solving for Uz, Initial residual = 0.011094331, Final residual = 4.4594572e-09, No Iterations 11
smoothSolver:  Solving for p, Initial residual = 0.3105486, Final residual = 0.31013927, No Iterations 1000
smoothSolver:  Solving for p, Initial residual = 0.31951608, Final residual = 0.31910076, No Iterations 1000
time step continuity errors : sum local = 0.0018022198, global = 0.0018022198, cumulative = -0.015350276
smoothSolver:  Solving for p, Initial residual = 0.32836406, Final residual = 0.32792222, No Iterations 1000
smoothSolver:  Solving for p, Initial residual = 0.33806167, Final residual = 0.33762245, No Iterations 1000
time step continuity errors : sum local = 0.0017945715, global = 0.0017945715, cumulative = -0.013555704
ExecutionTime = 229.67 s  ClockTime = 231 s

fieldMinMax minmaxdomain output:
    min(p) = 0 at location (-0.000525 0 0.216)
    max(p) = 12.144729 at location (0.00014395118 0.0014503614 0.0015)
    min(U) = (-0.0073238961 -0.071002275 1.3373182) at location (0.00010410184 0.0011123239 0.0015)
    max(U) = (0.045267801 0.036149196 1.4562448) at location (-0.0006310689 -0.00050894412 0.0015)

Time = 0.022

Courant Number mean: 0.32078323 max: 0.68425699
smoothSolver:  Solving for Ux, Initial residual = 0.0090409057, Final residual = 4.7918957e-09, No Iterations 10
smoothSolver:  Solving for Uy, Initial residual = 0.0090394257, Final residual = 4.8693726e-09, No Iterations 10
smoothSolver:  Solving for Uz, Initial residual = 0.011709073, Final residual = 4.7819821e-09, No Iterations 11
smoothSolver:  Solving for p, Initial residual = 0.33826172, Final residual = 0.33776027, No Iterations 1000
smoothSolver:  Solving for p, Initial residual = 0.34902054, Final residual = 0.34849983, No Iterations 1000
time step continuity errors : sum local = 0.001717108, global = 0.001717108, cumulative = -0.011838596
smoothSolver:  Solving for p, Initial residual = 0.35957743, Final residual = 0.35901539, No Iterations 1000
smoothSolver:  Solving for p, Initial residual = 0.37115612, Final residual = 0.37059994, No Iterations 1000
time step continuity errors : sum local = 0.0017087149, global = 0.0017087149, cumulative = -0.010129881
ExecutionTime = 234.88 s  ClockTime = 236 s

fieldMinMax minmaxdomain output:
    min(p) = 0 at location (-0.000525 0 0.216)
    max(p) = 10.737188 at location (0.00014395118 0.0014503614 0.0015)
    min(U) = (-0.0073322016 -0.071009873 1.3372926) at location (0.00010410184 0.0011123239 0.0015)
    max(U) = (0.045324829 0.036194995 1.4565411) at location (-0.0006310689 -0.00050894412 0.0015)

Time = 0.0225

Courant Number mean: 0.31504345 max: 0.68091861
smoothSolver:  Solving for Ux, Initial residual = 0.0085947786, Final residual = 4.5938159e-09, No Iterations 10
smoothSolver:  Solving for Uy, Initial residual = 0.0085596265, Final residual = 4.7804031e-09, No Iterations 10
smoothSolver:  Solving for Uz, Initial residual = 0.012183265, Final residual = 5.0162677e-09, No Iterations 11
smoothSolver:  Solving for p, Initial residual = 0.36906603, Final residual = 0.36847398, No Iterations 1000
smoothSolver:  Solving for p, Initial residual = 0.38203784, Final residual = 0.38141823, No Iterations 1000
time step continuity errors : sum local = 0.0016073419, global = 0.0016073419, cumulative = -0.0085225395
smoothSolver:  Solving for p, Initial residual = 0.39471538, Final residual = 0.39403582, No Iterations 1000
smoothSolver:  Solving for p, Initial residual = 0.40858876, Final residual = 0.40791874, No Iterations 1000
time step continuity errors : sum local = 0.0015987702, global = 0.0015987702, cumulative = -0.0069237693
ExecutionTime = 240.38 s  ClockTime = 241 s

fieldMinMax minmaxdomain output:
    min(p) = 0 at location (-0.000525 0 0.216)
    max(p) = 9.4975454 at location (0.00014395118 0.0014503614 0.0015)
    min(U) = (-0.0073397368 -0.071022155 1.3373368) at location (0.00010410184 0.0011123239 0.0015)
    max(U) = (0.045380034 0.036239227 1.4569355) at location (-0.0006310689 -0.00050894412 0.0015)

Time = 0.023

Courant Number mean: 0.3091448 max: 0.67495348
smoothSolver:  Solving for Ux, Initial residual = 0.0079712653, Final residual = 4.394706e-09, No Iterations 10
smoothSolver:  Solving for Uy, Initial residual = 0.007911713, Final residual = 4.5814967e-09, No Iterations 10
smoothSolver:  Solving for Uz, Initial residual = 0.012539449, Final residual = 5.1896998e-09, No Iterations 11
smoothSolver:  Solving for p, Initial residual = 0.40383249, Final residual = 0.4031472, No Iterations 1000
smoothSolver:  Solving for p, Initial residual = 0.41954118, Final residual = 0.41883938, No Iterations 1000
time step continuity errors : sum local = 0.0014742908, global = 0.0014742908, cumulative = -0.0054494785
smoothSolver:  Solving for p, Initial residual = 0.43491567, Final residual = 0.43413202, No Iterations 1000
smoothSolver:  Solving for p, Initial residual = 0.45179624, Final residual = 0.45102562, No Iterations 1000
time step continuity errors : sum local = 0.001466149, global = 0.001466149, cumulative = -0.0039833295
ExecutionTime = 246.29 s  ClockTime = 247 s

fieldMinMax minmaxdomain output:
    min(p) = -0.6171501 at location (-0.000525 0 0.1695)
    max(p) = 8.3954515 at location (0.00014395118 0.0014503614 0.0015)
    min(U) = (-0.0073464094 -0.071037132 1.3374216) at location (0.00010410184 0.0011123239 0.0015)
    max(U) = (0.045431751 0.036280621 1.4573802) at location (-0.0006310689 -0.00050894412 0.0015)

Time = 0.0235

Courant Number mean: 0.30315041 max: 0.66640166
smoothSolver:  Solving for Ux, Initial residual = 0.0074162731, Final residual = 4.1509415e-09, No Iterations 10
smoothSolver:  Solving for Uy, Initial residual = 0.0073482022, Final residual = 4.31914e-09, No Iterations 10
smoothSolver:  Solving for Uz, Initial residual = 0.012798712, Final residual = 5.3303773e-09, No Iterations 11
smoothSolver:  Solving for p, Initial residual = 0.4442545, Final residual = 0.44348025, No Iterations 1000
smoothSolver:  Solving for p, Initial residual = 0.46348415, Final residual = 0.46272682, No Iterations 1000
time step continuity errors : sum local = 0.0013212562, global = 0.0013212562, cumulative = -0.0026620733
smoothSolver:  Solving for p, Initial residual = 0.48255548, Final residual = 0.48169148, No Iterations 1000
smoothSolver:  Solving for p, Initial residual = 0.50352794, Final residual = 0.50267986, No Iterations 1000
time step continuity errors : sum local = 0.0013140925, global = 0.0013140925, cumulative = -0.0013479808
ExecutionTime = 251.17 s  ClockTime = 252 s

fieldMinMax minmaxdomain output:
    min(p) = -1.7348033 at location (-0.000525 0 0.1515)
    max(p) = 7.405916 at location (0.00014395118 0.0014503614 0.0015)
    min(U) = (-0.007352213 -0.071053245 1.3375251) at location (0.00010410184 0.0011123239 0.0015)
    max(U) = (0.045479029 0.036318465 1.457839) at location (-0.0006310689 -0.00050894412 0.0015)

Time = 0.024

Courant Number mean: 0.29711163 max: 0.65546893
smoothSolver:  Solving for Ux, Initial residual = 0.0072561764, Final residual = 3.9402621e-09, No Iterations 10
smoothSolver:  Solving for Uy, Initial residual = 0.0072055943, Final residual = 4.1185892e-09, No Iterations 10
smoothSolver:  Solving for Uz, Initial residual = 0.012979777, Final residual = 5.4638988e-09, No Iterations 11
smoothSolver:  Solving for p, Initial residual = 0.49380722, Final residual = 0.49295416, No Iterations 1000
smoothSolver:  Solving for p, Initial residual = 0.51799565, Final residual = 0.51721883, No Iterations 1000
time step continuity errors : sum local = 0.0011530135, global = 0.0011530135, cumulative = -0.00019496731
smoothSolver:  Solving for p, Initial residual = 0.5386324, Final residual = 0.53772826, No Iterations 1000
smoothSolver:  Solving for p, Initial residual = 0.51202456, Final residual = 0.51122182, No Iterations 1000
time step continuity errors : sum local = 0.0011472389, global = 0.0011472389, cumulative = 0.00095227162
ExecutionTime = 255.9 s  ClockTime = 257 s

fieldMinMax minmaxdomain output:
    min(p) = -2.7769043 at location (-0.000525 0 0.1425)
    max(p) = 6.5089366 at location (0.00014395118 0.0014503614 0.0015)
    min(U) = (-0.0073571973 -0.07106936 1.3376319) at location (0.00010410184 0.0011123239 0.0015)
    max(U) = (0.045521469 0.036352479 1.4582861) at location (-0.0006310689 -0.00050894412 0.0015)

Time = 0.0245

Courant Number mean: 0.29106892 max: 0.6425001
smoothSolver:  Solving for Ux, Initial residual = 0.0075505236, Final residual = 3.8026463e-09, No Iterations 10
smoothSolver:  Solving for Uy, Initial residual = 0.0075543171, Final residual = 4.0732605e-09, No Iterations 10
smoothSolver:  Solving for Uz, Initial residual = 0.013097808, Final residual = 5.6103972e-09, No Iterations 11
smoothSolver:  Solving for p, Initial residual = 0.44726069, Final residual = 0.44652296, No Iterations 1000
smoothSolver:  Solving for p, Initial residual = 0.42985854, Final residual = 0.42931558, No Iterations 1000
time step continuity errors : sum local = 0.00097517977, global = 0.00097517977, cumulative = 0.0019274514
smoothSolver:  Solving for p, Initial residual = 0.41251494, Final residual = 0.41191369, No Iterations 1000
smoothSolver:  Solving for p, Initial residual = 0.39670291, Final residual = 0.39616808, No Iterations 1000
time step continuity errors : sum local = 0.0009710285, global = 0.0009710285, cumulative = 0.0028984799
ExecutionTime = 260.51 s  ClockTime = 261 s

fieldMinMax minmaxdomain output:
    min(p) = -3.6434209 at location (-0.000525 5.9375289e-21 0.1395)
    max(p) = 5.6889629 at location (0.00014395118 0.0014503614 0.0015)
    min(U) = (-0.0073614555 -0.071084701 1.3377316) at location (0.00010410184 0.0011123239 0.0015)
    max(U) = (0.045559084 0.036382693 1.4587044) at location (-0.0006310689 -0.00050894412 0.0015)

Time = 0.025

Courant Number mean: 0.28505304 max: 0.62793476
smoothSolver:  Solving for Ux, Initial residual = 0.0082001154, Final residual = 3.8895009e-09, No Iterations 10
smoothSolver:  Solving for Uy, Initial residual = 0.0082955493, Final residual = 4.5186988e-09, No Iterations 10
smoothSolver:  Solving for Uz, Initial residual = 0.013168425, Final residual = 5.7845107e-09, No Iterations 11
smoothSolver:  Solving for p, Initial residual = 0.33541845, Final residual = 0.33490884, No Iterations 1000
smoothSolver:  Solving for p, Initial residual = 0.3254851, Final residual = 0.3251892, No Iterations 1000
time step continuity errors : sum local = 0.00079355335, global = 0.00079355335, cumulative = 0.0036920332
smoothSolver:  Solving for p, Initial residual = 0.31547986, Final residual = 0.31512925, No Iterations 1000
smoothSolver:  Solving for p, Initial residual = 0.30616195, Final residual = 0.30585289, No Iterations 1000
time step continuity errors : sum local = 0.00079107968, global = 0.00079107968, cumulative = 0.0044831129
ExecutionTime = 265.29 s  ClockTime = 266 s

fieldMinMax minmaxdomain output:
    min(p) = -4.303588 at location (0.00014395118 -0.0014503614 0.1335)
    max(p) = 4.9344557 at location (0.00014395118 0.0014503614 0.0015)
    min(U) = (-0.0073650969 -0.071098755 1.3378172) at location (0.00010410184 0.0011123239 0.0015)
    max(U) = (0.045592167 0.036409355 1.4590829) at location (-0.0006310689 -0.00050894412 0.0015)

Time = 0.0255

Courant Number mean: 0.27908631 max: 0.61225652
smoothSolver:  Solving for Ux, Initial residual = 0.0091073795, Final residual = 4.5337073e-09, No Iterations 10
smoothSolver:  Solving for Uy, Initial residual = 0.0093299329, Final residual = 5.3919362e-09, No Iterations 10
smoothSolver:  Solving for Uz, Initial residual = 0.013207459, Final residual = 5.9947878e-09, No Iterations 11
smoothSolver:  Solving for p, Initial residual = 0.2469447, Final residual = 0.24653508, No Iterations 1000
smoothSolver:  Solving for p, Initial residual = 0.24145653, Final residual = 0.24136017, No Iterations 1000
time step continuity errors : sum local = 0.00061353975, global = 0.00061353975, cumulative = 0.0050966527
smoothSolver:  Solving for p, Initial residual = 0.23604904, Final residual = 0.23590511, No Iterations 1000
smoothSolver:  Solving for p, Initial residual = 0.23085722, Final residual = 0.23073865, No Iterations 1000
time step continuity errors : sum local = 0.00061264357, global = 0.00061264357, cumulative = 0.0057092962
ExecutionTime = 270.39 s  ClockTime = 271 s

fieldMinMax minmaxdomain output:
    min(p) = -4.7581586 at location (0.00014395118 0.0014503614 0.1305)
    max(p) = 4.2376952 at location (0.00014395118 0.0014503614 0.0015)
    min(U) = (-0.007368235 -0.071111188 1.3378832) at location (0.00010410184 0.0011123239 0.0015)
    max(U) = (0.045621206 0.036432862 1.4594142) at location (-0.0006310689 -0.00050894412 0.0015)

Time = 0.026

Courant Number mean: 0.27318434 max: 0.59942582
smoothSolver:  Solving for Ux, Initial residual = 0.010074276, Final residual = 5.3371882e-09, No Iterations 10
smoothSolver:  Solving for Uy, Initial residual = 0.01038679, Final residual = 6.2467411e-09, No Iterations 10
smoothSolver:  Solving for Uz, Initial residual = 0.013228959, Final residual = 6.2436857e-09, No Iterations 11
smoothSolver:  Solving for p, Initial residual = 0.17622853, Final residual = 0.17536694, No Iterations 1000
smoothSolver:  Solving for p, Initial residual = 0.17286503, Final residual = 0.17260269, No Iterations 1000
time step continuity errors : sum local = 0.00044572991, global = 0.00043973295, cumulative = 0.0061490292
smoothSolver:  Solving for p, Initial residual = 0.16970688, Final residual = 0.16943599, No Iterations 1000
smoothSolver:  Solving for p, Initial residual = 0.16686141, Final residual = 0.16668215, No Iterations 1000
time step continuity errors : sum local = 0.0004439374, global = 0.00044020136, cumulative = 0.0065892306
ExecutionTime = 275.2 s  ClockTime = 276 s

fieldMinMax minmaxdomain output:
    min(p) = -5.0165104 at location (0.00014395118 0.0014503614 0.1245)
    max(p) = 3.5948884 at location (0.00014395118 0.0014503614 0.0015)
    min(U) = (-0.0073709906 -0.071121762 1.3379239) at location (0.00010410184 0.0011123239 0.0015)
    max(U) = (0.045646826 0.036453717 1.4596934) at location (-0.0006310689 -0.00050894412 0.0015)

Time = 0.0265

Courant Number mean: 0.26735796 max: 0.59942612
smoothSolver:  Solving for Ux, Initial residual = 0.010942445, Final residual = 6.110294e-09, No Iterations 10
smoothSolver:  Solving for Uy, Initial residual = 0.011289801, Final residual = 7.046158e-09, No Iterations 10
smoothSolver:  Solving for Uz, Initial residual = 0.013238628, Final residual = 6.5259495e-09, No Iterations 11
smoothSolver:  Solving for p, Initial residual = 0.13984958, Final residual = 0.13885332, No Iterations 1000
smoothSolver:  Solving for p, Initial residual = 0.13764769, Final residual = 0.13698826, No Iterations 1000
time step continuity errors : sum local = 0.00035694293, global = 0.00027567441, cumulative = 0.006864905
smoothSolver:  Solving for p, Initial residual = 0.13502976, Final residual = 0.13439244, No Iterations 1000
smoothSolver:  Solving for p, Initial residual = 0.13312565, Final residual = 0.13254169, No Iterations 1000
time step continuity errors : sum local = 0.00035170234, global = 0.00027722869, cumulative = 0.0071421337
ExecutionTime = 280.84 s  ClockTime = 282 s

fieldMinMax minmaxdomain output:
    min(p) = -5.1041118 at location (0.00014395118 0.0014503614 0.1215)
    max(p) = 3.0065178 at location (0.0014503614 -0.00014395118 0.0015)
    min(U) = (-0.0073734914 -0.071130279 1.3379334) at location (0.00010410184 0.0011123239 0.0015)
    max(U) = (0.045669762 0.03647251 1.459916) at location (-0.0006310689 -0.00050894412 0.0015)

Time = 0.027

Courant Number mean: 0.26161535 max: 0.59941685
smoothSolver:  Solving for Ux, Initial residual = 0.011629451, Final residual = 6.8163033e-09, No Iterations 10
smoothSolver:  Solving for Uy, Initial residual = 0.011984521, Final residual = 7.7622468e-09, No Iterations 10
smoothSolver:  Solving for Uz, Initial residual = 0.013241909, Final residual = 6.8338088e-09, No Iterations 11
smoothSolver:  Solving for p, Initial residual = 0.12750534, Final residual = 0.12645561, No Iterations 1000
smoothSolver:  Solving for p, Initial residual = 0.12600533, Final residual = 0.12516066, No Iterations 1000
time step continuity errors : sum local = 0.00033141821, global = 0.00012377861, cumulative = 0.0072659123
smoothSolver:  Solving for p, Initial residual = 0.12375772, Final residual = 0.12292192, No Iterations 1000
smoothSolver:  Solving for p, Initial residual = 0.12242697, Final residual = 0.12162395, No Iterations 1000
time step continuity errors : sum local = 0.00032432072, global = 0.0001261178, cumulative = 0.0073920301
ExecutionTime = 285.78 s  ClockTime = 287 s

fieldMinMax minmaxdomain output:
    min(p) = -5.0454798 at location (0.00014395118 0.0014503614 0.1155)
    max(p) = 2.4777634 at location (0.0014503614 -0.00014395118 0.0015)
    min(U) = (-0.0073758727 -0.071136569 1.3379052) at location (0.00010410184 0.0011123239 0.0015)
    max(U) = (0.045690848 0.036489913 1.4600788) at location (-0.0006310689 -0.00050894412 0.0015)

Time = 0.0275

Courant Number mean: 0.25596591 max: 0.5993934
smoothSolver:  Solving for Ux, Initial residual = 0.012112042, Final residual = 7.4345624e-09, No Iterations 10
smoothSolver:  Solving for Uy, Initial residual = 0.012459817, Final residual = 8.3761302e-09, No Iterations 10
smoothSolver:  Solving for Uz, Initial residual = 0.013233036, Final residual = 7.1534325e-09, No Iterations 11
smoothSolver:  Solving for p, Initial residual = 0.12659792, Final residual = 0.12555509, No Iterations 1000
smoothSolver:  Solving for p, Initial residual = 0.12568661, Final residual = 0.12474797, No Iterations 1000
time step continuity errors : sum local = 0.0003339233, global = -1.4608192e-05, cumulative = 0.0073774219
[...]
time step continuity errors : sum local = 5.1231151e-07, global = 5.1231151e-07, cumulative = -0.023010347
smoothSolver:  Solving for p, Initial residual = 9.9096455e-05, Final residual = 9.8997241e-05, No Iterations 1000
smoothSolver:  Solving for p, Initial residual = 9.8998199e-05, Final residual = 9.8901264e-05, No Iterations 1000
time step continuity errors : sum local = 5.1068878e-07, global = 5.1068878e-07, cumulative = -0.023009837
ExecutionTime = 1994.49 s  ClockTime = 1998 s

fieldMinMax minmaxdomain output:
    min(p) = 0 at location (-0.000525 0 0.216)
    max(p) = 18.640226 at location (-0.00014395118 -0.0014503614 0.0015)
    min(U) = (-0.0074008761 -0.071217931 1.3380125) at location (0.00010410184 0.0011123239 0.0015)
    max(U) = (0.045913565 0.036672786 1.4621116) at location (-0.0006310689 -0.00050894412 0.0015)

Time = 0.194

Courant Number mean: 0.24327394 max: 0.59930801
smoothSolver:  Solving for Ux, Initial residual = 1.2102479e-05, Final residual = 7.6420827e-09, No Iterations 5
smoothSolver:  Solving for Uy, Initial residual = 1.2334549e-05, Final residual = 8.0174541e-09, No Iterations 5
smoothSolver:  Solving for Uz, Initial residual = 1.0568034e-05, Final residual = 3.3689086e-09, No Iterations 6
smoothSolver:  Solving for p, Initial residual = 0.00011510826, Final residual = 0.00011500795, No Iterations 1000
smoothSolver:  Solving for p, Initial residual = 0.00011500915, Final residual = 0.00011490101, No Iterations 1000
time step continuity errors : sum local = 5.9330102e-07, global = 5.9330102e-07, cumulative = -0.023009243
smoothSolver:  Solving for p, Initial residual = 0.0001147699, Final residual = 0.00011465826, No Iterations 1000
smoothSolver:  Solving for p, Initial residual = 0.00011465952, Final residual = 0.00011455059, No Iterations 1000
time step continuity errors : sum local = 5.9147881e-07, global = 5.9147881e-07, cumulative = -0.023008652
ExecutionTime = 2000.26 s  ClockTime = 2003 s

fieldMinMax minmaxdomain output:
    min(p) = 0 at location (-0.000525 0 0.216)
    max(p) = 18.639597 at location (-0.00014395118 -0.0014503614 0.0015)
    min(U) = (-0.0074008718 -0.071217923 1.3380125) at location (0.00010410184 0.0011123239 0.0015)
    max(U) = (0.045913532 0.036672758 1.4621114) at location (-0.0006310689 -0.00050894412 0.0015)

Time = 0.1945

Courant Number mean: 0.24327781 max: 0.59930806
smoothSolver:  Solving for Ux, Initial residual = 1.1743186e-05, Final residual = 7.4773527e-09, No Iterations 5
smoothSolver:  Solving for Uy, Initial residual = 1.1952358e-05, Final residual = 7.8221678e-09, No Iterations 5
smoothSolver:  Solving for Uz, Initial residual = 9.5960389e-06, Final residual = 3.1228681e-09, No Iterations 6
smoothSolver:  Solving for p, Initial residual = 0.00012926737, Final residual = 0.00012915833, No Iterations 1000
smoothSolver:  Solving for p, Initial residual = 0.00012915985, Final residual = 0.00012904146, No Iterations 1000
time step continuity errors : sum local = 6.6629452e-07, global = 6.6629452e-07, cumulative = -0.023007986
smoothSolver:  Solving for p, Initial residual = 0.0001288981, Final residual = 0.00012877542, No Iterations 1000
smoothSolver:  Solving for p, Initial residual = 0.00012877699, Final residual = 0.00012865741, No Iterations 1000
time step continuity errors : sum local = 6.6429536e-07, global = 6.6429536e-07, cumulative = -0.023007321
ExecutionTime = 2005.54 s  ClockTime = 2009 s

fieldMinMax minmaxdomain output:
    min(p) = 0 at location (-0.000525 0 0.216)
    max(p) = 18.638874 at location (-0.00014395118 -0.0014503614 0.0015)
    min(U) = (-0.0074008679 -0.071217914 1.3380125) at location (0.00010410184 0.0011123239 0.0015)
    max(U) = (0.0459135 0.036672732 1.4621112) at location (-0.0006310689 -0.00050894412 0.0015)

Time = 0.195

Courant Number mean: 0.24328132 max: 0.59930811
smoothSolver:  Solving for Ux, Initial residual = 1.1308751e-05, Final residual = 7.2628449e-09, No Iterations 5
smoothSolver:  Solving for Uy, Initial residual = 1.1494121e-05, Final residual = 7.5760557e-09, No Iterations 5
smoothSolver:  Solving for Uz, Initial residual = 8.5899178e-06, Final residual = 2.862766e-09, No Iterations 6
smoothSolver:  Solving for p, Initial residual = 0.00014183155, Final residual = 0.000141715, No Iterations 1000
smoothSolver:  Solving for p, Initial residual = 0.00014171684, Final residual = 0.00014158955, No Iterations 1000
time step continuity errors : sum local = 7.3105684e-07, global = 7.3105684e-07, cumulative = -0.02300659
smoothSolver:  Solving for p, Initial residual = 0.00014143559, Final residual = 0.00014130327, No Iterations 1000
smoothSolver:  Solving for p, Initial residual = 0.00014130515, Final residual = 0.00014117629, No Iterations 1000
time step continuity errors : sum local = 7.289037e-07, global = 7.289037e-07, cumulative = -0.023005861
ExecutionTime = 2010.79 s  ClockTime = 2014 s

fieldMinMax minmaxdomain output:
    min(p) = 0 at location (-0.000525 0 0.216)
    max(p) = 18.638067 at location (-0.00014395118 -0.0014503614 0.0015)
    min(U) = (-0.0074008642 -0.071217906 1.3380125) at location (0.00010410184 0.0011123239 0.0015)
    max(U) = (0.04591347 0.036672708 1.4621109) at location (-0.0006310689 -0.00050894412 0.0015)

Time = 0.1955

Courant Number mean: 0.24328445 max: 0.59930814
smoothSolver:  Solving for Ux, Initial residual = 1.0803701e-05, Final residual = 6.9998616e-09, No Iterations 5
smoothSolver:  Solving for Uy, Initial residual = 1.0964436e-05, Final residual = 7.2802927e-09, No Iterations 5
smoothSolver:  Solving for Uz, Initial residual = 7.5723161e-06, Final residual = 9.0214419e-09, No Iterations 5
smoothSolver:  Solving for p, Initial residual = 0.0001527605, Final residual = 0.00015263879, No Iterations 1000
smoothSolver:  Solving for p, Initial residual = 0.00015264096, Final residual = 0.00015250626, No Iterations 1000
time step continuity errors : sum local = 7.8738673e-07, global = 7.8738673e-07, cumulative = -0.023005074
smoothSolver:  Solving for p, Initial residual = 0.00015234652, Final residual = 0.00015220539, No Iterations 1000
smoothSolver:  Solving for p, Initial residual = 0.00015220757, Final residual = 0.00015207077, No Iterations 1000
time step continuity errors : sum local = 7.8511582e-07, global = 7.8511582e-07, cumulative = -0.023004289
ExecutionTime = 2015.58 s  ClockTime = 2019 s

fieldMinMax minmaxdomain output:
    min(p) = 0 at location (-0.000525 0 0.216)
    max(p) = 18.637186 at location (-0.00014395118 -0.0014503614 0.0015)
    min(U) = (-0.0074008609 -0.071217897 1.3380125) at location (0.00010410184 0.0011123239 0.0015)
    max(U) = (0.045913442 0.036672685 1.4621107) at location (-0.0006310689 -0.00050894412 0.0015)

Time = 0.196

Courant Number mean: 0.2432872 max: 0.59930816
smoothSolver:  Solving for Ux, Initial residual = 1.023218e-05, Final residual = 6.6911508e-09, No Iterations 5
smoothSolver:  Solving for Uy, Initial residual = 1.0368227e-05, Final residual = 6.9381073e-09, No Iterations 5
smoothSolver:  Solving for Uz, Initial residual = 6.5538931e-06, Final residual = 8.0130708e-09, No Iterations 5
smoothSolver:  Solving for p, Initial residual = 0.00016205193, Final residual = 0.00016192425, No Iterations 1000
smoothSolver:  Solving for p, Initial residual = 0.0001619267, Final residual = 0.00016178569, No Iterations 1000
time step continuity errors : sum local = 8.3525436e-07, global = 8.3525436e-07, cumulative = -0.023003454
smoothSolver:  Solving for p, Initial residual = 0.00016161795, Final residual = 0.00016147033, No Iterations 1000
smoothSolver:  Solving for p, Initial residual = 0.00016147278, Final residual = 0.0001613295, No Iterations 1000
time step continuity errors : sum local = 8.3287395e-07, global = 8.3287395e-07, cumulative = -0.023002621
ExecutionTime = 2020.46 s  ClockTime = 2024 s

fieldMinMax minmaxdomain output:
    min(p) = 0 at location (-0.000525 0 0.216)
    max(p) = 18.63624 at location (-0.00014395118 -0.0014503614 0.0015)
    min(U) = (-0.0074008578 -0.071217888 1.3380125) at location (0.00010410184 0.0011123239 0.0015)
    max(U) = (0.045913416 0.036672664 1.4621105) at location (-0.0006310689 -0.00050894412 0.0015)

Time = 0.1965

Courant Number mean: 0.24328956 max: 0.59930818
smoothSolver:  Solving for Ux, Initial residual = 9.6108675e-06, Final residual = 6.3466971e-09, No Iterations 5
smoothSolver:  Solving for Uy, Initial residual = 9.7214431e-06, Final residual = 6.5593474e-09, No Iterations 5
smoothSolver:  Solving for Uz, Initial residual = 5.5649758e-06, Final residual = 6.9842311e-09, No Iterations 5
smoothSolver:  Solving for p, Initial residual = 0.00016969535, Final residual = 0.0001695639, No Iterations 1000
smoothSolver:  Solving for p, Initial residual = 0.00016956661, Final residual = 0.00016942081, No Iterations 1000
time step continuity errors : sum local = 8.7462457e-07, global = 8.7462457e-07, cumulative = -0.023001746
smoothSolver:  Solving for p, Initial residual = 0.00016924716, Final residual = 0.0001690942, No Iterations 1000
smoothSolver:  Solving for p, Initial residual = 0.00016909687, Final residual = 0.00016894848, No Iterations 1000
time step continuity errors : sum local = 8.7215853e-07, global = 8.7215853e-07, cumulative = -0.023000874
ExecutionTime = 2025.87 s  ClockTime = 2029 s

fieldMinMax minmaxdomain output:
    min(p) = 0 at location (-0.000525 0 0.216)
    max(p) = 18.63524 at location (-0.00014395118 -0.0014503614 0.0015)
    min(U) = (-0.0074008551 -0.07121788 1.3380125) at location (0.00010410184 0.0011123239 0.0015)
    max(U) = (0.045913392 0.036672645 1.4621102) at location (-0.0006310689 -0.00050894412 0.0015)

Time = 0.197

Courant Number mean: 0.24329153 max: 0.59930818
smoothSolver:  Solving for Ux, Initial residual = 8.9400379e-06, Final residual = 5.9668261e-09, No Iterations 5
smoothSolver:  Solving for Uy, Initial residual = 9.0254483e-06, Final residual = 6.1450681e-09, No Iterations 5
smoothSolver:  Solving for Uz, Initial residual = 4.6343242e-06, Final residual = 5.943805e-09, No Iterations 5
smoothSolver:  Solving for p, Initial residual = 0.0001757014, Final residual = 0.00017556714, No Iterations 1000
smoothSolver:  Solving for p, Initial residual = 0.00017557009, Final residual = 0.00017542075, No Iterations 1000
time step continuity errors : sum local = 9.0554583e-07, global = 9.0554583e-07, cumulative = -0.022999968
smoothSolver:  Solving for p, Initial residual = 0.00017524264, Final residual = 0.00017508582, No Iterations 1000
smoothSolver:  Solving for p, Initial residual = 0.00017508868, Final residual = 0.00017493656, No Iterations 1000
time step continuity errors : sum local = 9.0301674e-07, global = 9.0301674e-07, cumulative = -0.022999065
ExecutionTime = 2031.69 s  ClockTime = 2035 s

fieldMinMax minmaxdomain output:
    min(p) = 0 at location (-0.000525 0 0.216)
    max(p) = 18.634196 at location (-0.00014395118 -0.0014503614 0.0015)
    min(U) = (-0.0074008527 -0.071217871 1.3380124) at location (0.00010410184 0.0011123239 0.0015)
    max(U) = (0.045913371 0.036672627 1.46211) at location (-0.0006310689 -0.00050894412 0.0015)

Time = 0.1975

Courant Number mean: 0.2432931 max: 0.59930818
smoothSolver:  Solving for Ux, Initial residual = 8.2289134e-06, Final residual = 5.5579476e-09, No Iterations 5
smoothSolver:  Solving for Uy, Initial residual = 8.2897024e-06, Final residual = 5.7020728e-09, No Iterations 5
smoothSolver:  Solving for Uz, Initial residual = 3.8088931e-06, Final residual = 4.9101036e-09, No Iterations 5
smoothSolver:  Solving for p, Initial residual = 0.00018009106, Final residual = 0.00017995515, No Iterations 1000
smoothSolver:  Solving for p, Initial residual = 0.00017995826, Final residual = 0.00017980675, No Iterations 1000
time step continuity errors : sum local = 9.2812949e-07, global = 9.2812949e-07, cumulative = -0.022998137
smoothSolver:  Solving for p, Initial residual = 0.00017962579, Final residual = 0.00017946647, No Iterations 1000
smoothSolver:  Solving for p, Initial residual = 0.00017946947, Final residual = 0.00017931494, No Iterations 1000
time step continuity errors : sum local = 9.2555975e-07, global = 9.2555975e-07, cumulative = -0.022997212
ExecutionTime = 2036.96 s  ClockTime = 2040 s

fieldMinMax minmaxdomain output:
    min(p) = 0 at location (-0.000525 0 0.216)
    max(p) = 18.633118 at location (-0.00014395118 -0.0014503614 0.0015)
    min(U) = (-0.0074008507 -0.071217863 1.3380124) at location (0.00010410184 0.0011123239 0.0015)
    max(U) = (0.045913352 0.036672612 1.4621098) at location (-0.0006310689 -0.00050894412 0.0015)

Time = 0.198

Courant Number mean: 0.24329428 max: 0.59930818
smoothSolver:  Solving for Ux, Initial residual = 7.4840757e-06, Final residual = 5.1230263e-09, No Iterations 5
smoothSolver:  Solving for Uy, Initial residual = 7.520194e-06, Final residual = 5.233069e-09, No Iterations 5
smoothSolver:  Solving for Uz, Initial residual = 3.1126269e-06, Final residual = 3.995653e-09, No Iterations 5
smoothSolver:  Solving for p, Initial residual = 0.0001828976, Final residual = 0.00018276094, No Iterations 1000
smoothSolver:  Solving for p, Initial residual = 0.00018276414, Final residual = 0.00018261173, No Iterations 1000
time step continuity errors : sum local = 9.4254739e-07, global = 9.4254739e-07, cumulative = -0.022996269
smoothSolver:  Solving for p, Initial residual = 0.00018242938, Final residual = 0.00018226893, No Iterations 1000
smoothSolver:  Solving for p, Initial residual = 0.00018227202, Final residual = 0.00018211639, No Iterations 1000
time step continuity errors : sum local = 9.3995864e-07, global = 9.3995864e-07, cumulative = -0.022995329
ExecutionTime = 2042.57 s  ClockTime = 2046 s

fieldMinMax minmaxdomain output:
    min(p) = 0 at location (-0.000525 0 0.216)
    max(p) = 18.632015 at location (-0.00014395118 -0.0014503614 0.0015)
    min(U) = (-0.0074008489 -0.071217855 1.3380123) at location (0.00010410184 0.0011123239 0.0015)
    max(U) = (0.045913336 0.036672599 1.4621096) at location (-0.0006310689 -0.00050894412 0.0015)

Time = 0.1985

Courant Number mean: 0.24329509 max: 0.59930816
smoothSolver:  Solving for Ux, Initial residual = 6.7102255e-06, Final residual = 4.6651427e-09, No Iterations 5
smoothSolver:  Solving for Uy, Initial residual = 6.7220603e-06, Final residual = 4.7406742e-09, No Iterations 5
smoothSolver:  Solving for Uz, Initial residual = 2.5727709e-06, Final residual = 3.2154586e-09, No Iterations 5
smoothSolver:  Solving for p, Initial residual = 0.00018416525, Final residual = 0.00018402833, No Iterations 1000
smoothSolver:  Solving for p, Initial residual = 0.00018403153, Final residual = 0.00018387949, No Iterations 1000
time step continuity errors : sum local = 9.4902761e-07, global = 9.4902761e-07, cumulative = -0.02299438
smoothSolver:  Solving for p, Initial residual = 0.00018369721, Final residual = 0.00018353691, No Iterations 1000
smoothSolver:  Solving for p, Initial residual = 0.00018354005, Final residual = 0.00018338457, No Iterations 1000
time step continuity errors : sum local = 9.4644079e-07, global = 9.4644079e-07, cumulative = -0.022993434
ExecutionTime = 2048.13 s  ClockTime = 2051 s

fieldMinMax minmaxdomain output:
    min(p) = 0 at location (-0.000525 0 0.216)
    max(p) = 18.630898 at location (-0.00014395118 -0.0014503614 0.0015)
    min(U) = (-0.0074008476 -0.071217847 1.3380122) at location (0.00010410184 0.0011123239 0.0015)
    max(U) = (0.045913322 0.036672588 1.4621094) at location (-0.0006310689 -0.00050894412 0.0015)

Time = 0.199

Courant Number mean: 0.24329552 max: 0.59930814
smoothSolver:  Solving for Ux, Initial residual = 5.9204417e-06, Final residual = 4.194117e-09, No Iterations 5
smoothSolver:  Solving for Uy, Initial residual = 5.9081599e-06, Final residual = 4.2359824e-09, No Iterations 5
smoothSolver:  Solving for Uz, Initial residual = 2.2230467e-06, Final residual = 9.0018462e-09, No Iterations 4
smoothSolver:  Solving for p, Initial residual = 0.00018394143, Final residual = 0.0001838058, No Iterations 1000
smoothSolver:  Solving for p, Initial residual = 0.00018380913, Final residual = 0.00018365854, No Iterations 1000
time step continuity errors : sum local = 9.4782265e-07, global = 9.4782265e-07, cumulative = -0.022992486
smoothSolver:  Solving for p, Initial residual = 0.00018347976, Final residual = 0.00018332043, No Iterations 1000
smoothSolver:  Solving for p, Initial residual = 0.00018332357, Final residual = 0.00018316941, No Iterations 1000
time step continuity errors : sum local = 9.4526591e-07, global = 9.4526591e-07, cumulative = -0.022991541
ExecutionTime = 2053.46 s  ClockTime = 2057 s

fieldMinMax minmaxdomain output:
    min(p) = 0 at location (-0.000525 0 0.216)
    max(p) = 18.629775 at location (-0.00014395118 -0.0014503614 0.0015)
    min(U) = (-0.0074008465 -0.071217839 1.3380122) at location (0.00010410184 0.0011123239 0.0015)
    max(U) = (0.045913311 0.036672578 1.4621092) at location (-0.0006310689 -0.00050894412 0.0015)

Time = 0.1995

Courant Number mean: 0.24329558 max: 0.59930811
smoothSolver:  Solving for Ux, Initial residual = 5.1171106e-06, Final residual = 3.7093844e-09, No Iterations 5
smoothSolver:  Solving for Uy, Initial residual = 5.08215e-06, Final residual = 3.7188977e-09, No Iterations 5
smoothSolver:  Solving for Uz, Initial residual = 2.0904657e-06, Final residual = 7.1580625e-09, No Iterations 4
smoothSolver:  Solving for p, Initial residual = 0.00018230219, Final residual = 0.00018216703, No Iterations 1000
smoothSolver:  Solving for p, Initial residual = 0.00018217043, Final residual = 0.00018202215, No Iterations 1000
time step continuity errors : sum local = 9.393127e-07, global = 9.393127e-07, cumulative = -0.022990601
smoothSolver:  Solving for p, Initial residual = 0.00018184469, Final residual = 0.00018168828, No Iterations 1000
smoothSolver:  Solving for p, Initial residual = 0.00018169136, Final residual = 0.00018153974, No Iterations 1000
time step continuity errors : sum local = 9.3679139e-07, global = 9.3679139e-07, cumulative = -0.022989665
ExecutionTime = 2058.63 s  ClockTime = 2062 s

fieldMinMax minmaxdomain output:
    min(p) = 0 at location (-0.000525 0 0.216)
    max(p) = 18.628655 at location (-0.00014395118 -0.0014503614 0.0015)
    min(U) = (-0.0074008458 -0.071217832 1.3380121) at location (0.00010410184 0.0011123239 0.0015)
    max(U) = (0.045913302 0.036672571 1.462109) at location (-0.0006310689 -0.00050894412 0.0015)

Time = 0.2

Courant Number mean: 0.2432953 max: 0.59930808
smoothSolver:  Solving for Ux, Initial residual = 4.3392707e-06, Final residual = 3.2230676e-09, No Iterations 5
smoothSolver:  Solving for Uy, Initial residual = 4.2850538e-06, Final residual = 3.2015794e-09, No Iterations 5
smoothSolver:  Solving for Uz, Initial residual = 2.1973268e-06, Final residual = 5.7910649e-09, No Iterations 4
smoothSolver:  Solving for p, Initial residual = 0.00017931503, Final residual = 0.00017918021, No Iterations 1000
smoothSolver:  Solving for p, Initial residual = 0.00017918363, Final residual = 0.0001790389, No Iterations 1000
time step continuity errors : sum local = 9.2385374e-07, global = 9.2385374e-07, cumulative = -0.022988741
smoothSolver:  Solving for p, Initial residual = 0.00017886452, Final residual = 0.00017871185, No Iterations 1000
smoothSolver:  Solving for p, Initial residual = 0.00017871483, Final residual = 0.00017856678, No Iterations 1000
time step continuity errors : sum local = 9.2138677e-07, global = 9.2138677e-07, cumulative = -0.022987819
ExecutionTime = 2066.77 s  ClockTime = 2070 s

fieldMinMax minmaxdomain output:
    min(p) = 0 at location (-0.000525 0 0.216)
    max(p) = 18.627548 at location (-0.00014395118 -0.0014503614 0.0015)
    min(U) = (-0.0074008454 -0.071217825 1.338012) at location (0.00010410184 0.0011123239 0.0015)
    max(U) = (0.045913296 0.036672566 1.4621089) at location (-0.0006310689 -0.00050894412 0.0015)

End

