/*---------------------------------------------------------------------------*\
| =========                 |                                                 |
| \\      /  F ield         | OpenFOAM: The Open Source CFD Toolbox           |
|  \\    /   O peration     | Version:  3.0.x                                 |
|   \\  /    A nd           | Web:      www.OpenFOAM.org                      |
|    \\/     M anipulation  |                                                 |
\*---------------------------------------------------------------------------*/
Build  : 3.0.x-5b548639bc6e
Exec   : icoFoam
Date   : Jun 17 2016
Time   : 16:02:42
Host   : "dagobah"
PID    : 29809
Case   : /home/joegi/OpenFOAM/of_courses/2016a/of_course_tutorials/30x/101MSOLVERS/pipe3d/icoFoam
nProcs : 1
sigFpe : Enabling floating point exception trapping (FOAM_SIGFPE).
fileModificationChecking : Monitoring run-time modified files using timeStampMaster
allowSystemOperations : Allowing user-supplied system call operations

// * * * * * * * * * * * * * * * * * * * * * * * * * * * * * * * * * * * * * //
Create time

Create mesh for time = 0


PISO: Operating solver in PISO mode

Reading transportProperties

Reading field p

Reading field U

Reading/calculating face flux field phi


Starting time loop

Time = 0.0005

Courant Number mean: 0 max: 0
smoothSolver:  Solving for Ux, Initial residual = 0, Final residual = 0, No Iterations 0
smoothSolver:  Solving for Uy, Initial residual = 0, Final residual = 0, No Iterations 0
smoothSolver:  Solving for Uz, Initial residual = 1, Final residual = 5.7493319e-09, No Iterations 15
FDICPCG:  Solving for p, Initial residual = 1, Final residual = 6.5186065, No Iterations 2
FDICPCG:  Solving for p, Initial residual = 0.84215138, Final residual = 0.3199383, No Iterations 2
time step continuity errors : sum local = 0.007982359, global = -0.0032959304, cumulative = -0.0032959304
FDICPCG:  Solving for p, Initial residual = 0.86534475, Final residual = 0.44948176, No Iterations 2
FDICPCG:  Solving for p, Initial residual = 0.5287549, Final residual = 0.80038766, No Iterations 2
time step continuity errors : sum local = 0.0084365553, global = -0.0032959304, cumulative = -0.0065918607
ExecutionTime = 0.49 s  ClockTime = 0 s

fieldMinMax minmaxdomain output:
    min(p) = 0 at location (-0.000525 0 0.216)
    max(p) = 7.9271173 at location (-0.000525 -6.8173165e-21 0.0015)
    min(U) = (-0.0055038127 -0.12000586 0.24761841) at location (7.5e-05 0.00015 0.0015)
    max(U) = (0.18029165 0.24888779 0.34260565) at location (0.00094149705 0.00026859078 0.0015)

Time = 0.001

Courant Number mean: 0.014392997 max: 2.6533692
smoothSolver:  Solving for Ux, Initial residual = 0.44055383, Final residual = 4.3709612e-09, No Iterations 13
smoothSolver:  Solving for Uy, Initial residual = 0.43024721, Final residual = 8.1643786e-09, No Iterations 12
smoothSolver:  Solving for Uz, Initial residual = 0.34044439, Final residual = 8.3581905e-09, No Iterations 14
FDICPCG:  Solving for p, Initial residual = 0.90931417, Final residual = 0.46124041, No Iterations 2
FDICPCG:  Solving for p, Initial residual = 0.36403462, Final residual = 0.31701934, No Iterations 2
time step continuity errors : sum local = 0.00699984, global = -0.0032959304, cumulative = -0.0098877911
FDICPCG:  Solving for p, Initial residual = 0.59330527, Final residual = 0.62491407, No Iterations 2
FDICPCG:  Solving for p, Initial residual = 0.56295336, Final residual = 0.47216904, No Iterations 2
time step continuity errors : sum local = 0.0062691936, global = -0.0032959304, cumulative = -0.013183721
ExecutionTime = 0.72 s  ClockTime = 0 s

fieldMinMax minmaxdomain output:
    min(p) = 0 at location (-0.000525 0 0.216)
    max(p) = 8.0603633 at location (-0.00064340914 0.001209479 0.0015)
    min(U) = (-0.012721337 -0.027101034 0.2867886) at location (0.00042232311 0.0013923955 0.0015)
    max(U) = (0.1668936 0.18330975 0.89999708) at location (-0.000375 0.00015 0.0015)

Time = 0.0015

Courant Number mean: 0.014709856 max: 2.1062644
smoothSolver:  Solving for Ux, Initial residual = 0.48469866, Final residual = 4.2924723e-09, No Iterations 13
smoothSolver:  Solving for Uy, Initial residual = 0.48421318, Final residual = 3.2632863e-09, No Iterations 13
smoothSolver:  Solving for Uz, Initial residual = 0.13948726, Final residual = 6.1342315e-09, No Iterations 14
FDICPCG:  Solving for p, Initial residual = 0.94709781, Final residual = 0.63798444, No Iterations 2
FDICPCG:  Solving for p, Initial residual = 0.52592968, Final residual = 0.62519794, No Iterations 2
time step continuity errors : sum local = 0.010277673, global = -0.0032959304, cumulative = -0.016479652
FDICPCG:  Solving for p, Initial residual = 0.81606235, Final residual = 0.6090484, No Iterations 2
FDICPCG:  Solving for p, Initial residual = 0.60488505, Final residual = 0.64602113, No Iterations 2
time step continuity errors : sum local = 0.009110335, global = -0.0032959304, cumulative = -0.019775582
ExecutionTime = 0.94 s  ClockTime = 0 s

fieldMinMax minmaxdomain output:
    min(p) = 0 at location (-0.000525 0 0.216)
    max(p) = 7.7371694 at location (-0.00063579685 4.7926765e-05 0.0015)
    min(U) = (0.035208644 -0.044483278 0.53241254) at location (-0.000525 -6.8173165e-21 0.0015)
    max(U) = (0.31250325 0.13290463 1.6698489) at location (-0.0003 7.5e-05 0.0015)

Time = 0.002

Courant Number mean: 0.019670867 max: 2.7461772
smoothSolver:  Solving for Ux, Initial residual = 0.32944493, Final residual = 6.3598453e-09, No Iterations 13
smoothSolver:  Solving for Uy, Initial residual = 0.35924158, Final residual = 6.6612926e-09, No Iterations 13
smoothSolver:  Solving for Uz, Initial residual = 0.099270581, Final residual = 4.8434089e-09, No Iterations 14
FDICPCG:  Solving for p, Initial residual = 0.84668062, Final residual = 0.70406949, No Iterations 2
FDICPCG:  Solving for p, Initial residual = 0.59538875, Final residual = 0.57749631, No Iterations 2
time step continuity errors : sum local = 0.010039971, global = -0.0032959304, cumulative = -0.023071513
FDICPCG:  Solving for p, Initial residual = 0.80773637, Final residual = 0.69086462, No Iterations 2
FDICPCG:  Solving for p, Initial residual = 0.63061717, Final residual = 0.58753018, No Iterations 2
time step continuity errors : sum local = 0.0094342348, global = -0.0032959304, cumulative = -0.026367443
ExecutionTime = 1.23 s  ClockTime = 1 s

fieldMinMax minmaxdomain output:
    min(p) = 0 at location (-0.000525 0 0.216)
    max(p) = 6.9392978 at location (-0.00063579685 4.7926765e-05 0.0015)
    min(U) = (-0.074818493 -0.26884259 0.25633723) at location (-0.00063579685 -4.7926765e-05 0.0015)
    max(U) = (0.35081235 0.12116535 0.90362572) at location (-0.0003 7.5e-05 0.0015)

Time = 0.0025

Courant Number mean: 0.021694303 max: 2.9077691
smoothSolver:  Solving for Ux, Initial residual = 0.15158565, Final residual = 5.4021552e-09, No Iterations 13
smoothSolver:  Solving for Uy, Initial residual = 0.14783071, Final residual = 4.2480876e-09, No Iterations 13
smoothSolver:  Solving for Uz, Initial residual = 0.071457705, Final residual = 3.253897e-09, No Iterations 14
FDICPCG:  Solving for p, Initial residual = 0.76615479, Final residual = 0.74665563, No Iterations 2
FDICPCG:  Solving for p, Initial residual = 0.62883417, Final residual = 0.52749086, No Iterations 2
time step continuity errors : sum local = 0.0093534793, global = -0.0032959304, cumulative = -0.029663373
FDICPCG:  Solving for p, Initial residual = 0.73053609, Final residual = 0.69161661, No Iterations 2
FDICPCG:  Solving for p, Initial residual = 0.61837205, Final residual = 0.54143021, No Iterations 2
time step continuity errors : sum local = 0.0091577295, global = -0.0032959304, cumulative = -0.032959304
ExecutionTime = 1.53 s  ClockTime = 1 s

fieldMinMax minmaxdomain output:
    min(p) = 0 at location (-0.000525 0 0.216)
    max(p) = 6.2229308 at location (-0.00063579685 4.7926765e-05 0.0015)
    min(U) = (-0.076006912 -0.27229121 0.13306675) at location (-0.00063579685 -4.7926765e-05 0.0015)
    max(U) = (0.36266507 0.11183811 0.48197741) at location (-0.0003 7.5e-05 0.0015)

Time = 0.003

Courant Number mean: 0.024334491 max: 2.9716141
smoothSolver:  Solving for Ux, Initial residual = 0.10093302, Final residual = 9.2666278e-09, No Iterations 12
smoothSolver:  Solving for Uy, Initial residual = 0.10398955, Final residual = 8.4314292e-09, No Iterations 12
smoothSolver:  Solving for Uz, Initial residual = 0.059985724, Final residual = 3.2946621e-09, No Iterations 14
FDICPCG:  Solving for p, Initial residual = 0.74259467, Final residual = 0.71052404, No Iterations 2
FDICPCG:  Solving for p, Initial residual = 0.63017201, Final residual = 0.54952978, No Iterations 2
time step continuity errors : sum local = 0.0097147783, global = -0.0032959304, cumulative = -0.036255234
FDICPCG:  Solving for p, Initial residual = 0.71932734, Final residual = 0.67475438, No Iterations 2
FDICPCG:  Solving for p, Initial residual = 0.61996131, Final residual = 0.55343565, No Iterations 2
time step continuity errors : sum local = 0.0094723706, global = -0.0032959304, cumulative = -0.039551164
ExecutionTime = 1.84 s  ClockTime = 1 s

fieldMinMax minmaxdomain output:
    min(p) = 0 at location (-0.000525 0 0.216)
    max(p) = 5.7721675 at location (-0.00063579685 4.7926765e-05 0.0015)
    min(U) = (-0.077334341 -0.26912682 0.099712974) at location (-0.00063579685 -4.7926765e-05 0.0015)
    max(U) = (0.35386832 0.12180031 0.30365709) at location (-0.0003 7.5e-05 0.0015)

Time = 0.0035

Courant Number mean: 0.027278652 max: 2.9936381
smoothSolver:  Solving for Ux, Initial residual = 0.093170807, Final residual = 3.3088194e-09, No Iterations 13
smoothSolver:  Solving for Uy, Initial residual = 0.092749737, Final residual = 7.0961345e-09, No Iterations 12
smoothSolver:  Solving for Uz, Initial residual = 0.058602275, Final residual = 9.2776058e-09, No Iterations 13
FDICPCG:  Solving for p, Initial residual = 0.73960555, Final residual = 0.70833565, No Iterations 2
FDICPCG:  Solving for p, Initial residual = 0.64239804, Final residual = 0.56264966, No Iterations 2
time step continuity errors : sum local = 0.009647366, global = -0.0032959304, cumulative = -0.042847095
FDICPCG:  Solving for p, Initial residual = 0.72391539, Final residual = 0.674145, No Iterations 2
FDICPCG:  Solving for p, Initial residual = 0.62479049, Final residual = 0.5648001, No Iterations 2
time step continuity errors : sum local = 0.0094140878, global = -0.0032959304, cumulative = -0.046143025
ExecutionTime = 2.31 s  ClockTime = 2 s

fieldMinMax minmaxdomain output:
    min(p) = 0 at location (-0.000525 0 0.216)
    max(p) = 5.6092671 at location (-0.00063579685 4.7926765e-05 0.0015)
    min(U) = (-0.074945306 -0.26483111 0.11305916) at location (-0.00063579685 -4.7926765e-05 0.0015)
    max(U) = (0.35641146 0.13127904 0.32576754) at location (-0.0003 7.5e-05 0.0015)

Time = 0.004

Courant Number mean: 0.029728746 max: 3.0104377
smoothSolver:  Solving for Ux, Initial residual = 0.08499534, Final residual = 8.8600521e-09, No Iterations 12
smoothSolver:  Solving for Uy, Initial residual = 0.081404285, Final residual = 7.6738875e-09, No Iterations 12
smoothSolver:  Solving for Uz, Initial residual = 0.051136121, Final residual = 7.9540078e-09, No Iterations 13
FDICPCG:  Solving for p, Initial residual = 0.76230404, Final residual = 0.74401029, No Iterations 2
FDICPCG:  Solving for p, Initial residual = 0.67238458, Final residual = 0.59053554, No Iterations 2
time step continuity errors : sum local = 0.0099471248, global = -0.0032959304, cumulative = -0.049438955
FDICPCG:  Solving for p, Initial residual = 0.75196952, Final residual = 0.70765153, No Iterations 2
FDICPCG:  Solving for p, Initial residual = 0.65445099, Final residual = 0.59369098, No Iterations 2
time step continuity errors : sum local = 0.0097264861, global = -0.0032959304, cumulative = -0.052734886
ExecutionTime = 2.78 s  ClockTime = 2 s

fieldMinMax minmaxdomain output:
    min(p) = 0 at location (-0.000525 0 0.216)
    max(p) = 5.5979179 at location (-0.00063579685 4.7926765e-05 0.0015)
    min(U) = (-0.072780148 -0.26680988 0.14039347) at location (-0.00063579685 -4.7926765e-05 0.0015)
    max(U) = (0.36250215 0.13447015 0.43632621) at location (-0.0003 7.5e-05 0.0015)

Time = 0.0045

Courant Number mean: 0.032072805 max: 3.0330505
smoothSolver:  Solving for Ux, Initial residual = 0.092021586, Final residual = 9.0269574e-09, No Iterations 12
smoothSolver:  Solving for Uy, Initial residual = 0.086040399, Final residual = 7.827353e-09, No Iterations 12
smoothSolver:  Solving for Uz, Initial residual = 0.051725535, Final residual = 8.620982e-09, No Iterations 13
FDICPCG:  Solving for p, Initial residual = 0.76772051, Final residual = 0.76638853, No Iterations 2
FDICPCG:  Solving for p, Initial residual = 0.68731262, Final residual = 0.59162456, No Iterations 2
time step continuity errors : sum local = 0.0097482987, global = -0.0032959304, cumulative = -0.056030816
FDICPCG:  Solving for p, Initial residual = 0.75679298, Final residual = 0.7227769, No Iterations 2
FDICPCG:  Solving for p, Initial residual = 0.66714765, Final residual = 0.59707628, No Iterations 2
time step continuity errors : sum local = 0.0095176998, global = -0.0032959304, cumulative = -0.059326746
ExecutionTime = 3.25 s  ClockTime = 3 s

fieldMinMax minmaxdomain output:
    min(p) = 0 at location (-0.000525 0 0.216)
    max(p) = 5.6027399 at location (-0.00063579685 4.7926765e-05 0.0015)
    min(U) = (-0.071332861 -0.27053838 0.15697114) at location (-0.00063579685 -4.7926765e-05 0.0015)
    max(U) = (0.36468126 0.1344043 0.53706703) at location (-0.0003 7.5e-05 0.0015)

Time = 0.005

Courant Number mean: 0.034058051 max: 3.0529414
smoothSolver:  Solving for Ux, Initial residual = 0.089895573, Final residual = 8.813235e-09, No Iterations 12
smoothSolver:  Solving for Uy, Initial residual = 0.086459986, Final residual = 7.8975939e-09, No Iterations 12
smoothSolver:  Solving for Uz, Initial residual = 0.046556797, Final residual = 7.4194307e-09, No Iterations 13
FDICPCG:  Solving for p, Initial residual = 0.77115369, Final residual = 0.78837988, No Iterations 2
FDICPCG:  Solving for p, Initial residual = 0.70149368, Final residual = 0.59540475, No Iterations 2
time step continuity errors : sum local = 0.0098073692, global = -0.0032959304, cumulative = -0.062622677
FDICPCG:  Solving for p, Initial residual = 0.7563848, Final residual = 0.73879001, No Iterations 2
FDICPCG:  Solving for p, Initial residual = 0.67830933, Final residual = 0.5994488, No Iterations 2
time step continuity errors : sum local = 0.009606582, global = -0.0032959304, cumulative = -0.065918607
ExecutionTime = 3.9 s  ClockTime = 3 s

fieldMinMax minmaxdomain output:
    min(p) = 0 at location (-0.000525 0 0.216)
    max(p) = 5.5617867 at location (-0.00063579685 4.7926765e-05 0.0015)
    min(U) = (-0.07037003 -0.27467499 0.15712073) at location (-0.00063579685 -4.7926765e-05 0.0015)
    max(U) = (0.19757751 0.28466684 0.31250054) at location (-0.000375 0.00015 0.0015)

Time = 0.0055

Courant Number mean: 0.036042594 max: 3.0854901
smoothSolver:  Solving for Ux, Initial residual = 0.10034958, Final residual = 7.9031301e-09, No Iterations 12
smoothSolver:  Solving for Uy, Initial residual = 0.094023567, Final residual = 7.1652608e-09, No Iterations 12
smoothSolver:  Solving for Uz, Initial residual = 0.043086161, Final residual = 6.4996185e-09, No Iterations 13
FDICPCG:  Solving for p, Initial residual = 0.77229757, Final residual = 0.8002987, No Iterations 2
FDICPCG:  Solving for p, Initial residual = 0.70779187, Final residual = 0.59403583, No Iterations 2
time step continuity errors : sum local = 0.0098662442, global = -0.0032959304, cumulative = -0.069214538
FDICPCG:  Solving for p, Initial residual = 0.75292551, Final residual = 0.74481473, No Iterations 2
FDICPCG:  Solving for p, Initial residual = 0.68171778, Final residual = 0.59541621, No Iterations 2
time step continuity errors : sum local = 0.0096006725, global = -0.0032959304, cumulative = -0.072510468
ExecutionTime = 4.35 s  ClockTime = 4 s

fieldMinMax minmaxdomain output:
    min(p) = 0 at location (-0.000525 0 0.216)
    max(p) = 5.4791542 at location (-0.00063579685 4.7926765e-05 0.0015)
    min(U) = (-0.069288671 -0.27788554 0.14609754) at location (-0.00063579685 -4.7926765e-05 0.0015)
    max(U) = (0.19996763 0.28541426 0.31280147) at location (-0.000375 0.00015 0.0015)

Time = 0.006

Courant Number mean: 0.037794728 max: 3.1142961
smoothSolver:  Solving for Ux, Initial residual = 0.092011856, Final residual = 9.4184726e-09, No Iterations 12
smoothSolver:  Solving for Uy, Initial residual = 0.085243567, Final residual = 8.1974096e-09, No Iterations 12
smoothSolver:  Solving for Uz, Initial residual = 0.040949773, Final residual = 6.4881493e-09, No Iterations 13
FDICPCG:  Solving for p, Initial residual = 0.74473288, Final residual = 0.77280447, No Iterations 2
FDICPCG:  Solving for p, Initial residual = 0.68869639, Final residual = 0.57513105, No Iterations 2
time step continuity errors : sum local = 0.0094982529, global = -0.0032959304, cumulative = -0.075806398
FDICPCG:  Solving for p, Initial residual = 0.72603692, Final residual = 0.72522936, No Iterations 2
FDICPCG:  Solving for p, Initial residual = 0.66555057, Final residual = 0.57895618, No Iterations 2
time step continuity errors : sum local = 0.0093024253, global = -0.0032959304, cumulative = -0.079102329
ExecutionTime = 4.87 s  ClockTime = 4 s

fieldMinMax minmaxdomain output:
    min(p) = 0 at location (-0.000525 0 0.216)
    max(p) = 5.3931186 at location (-0.00063579685 4.7926765e-05 0.0015)
    min(U) = (-0.06793113 -0.27943488 0.13361304) at location (-0.00063579685 -4.7926765e-05 0.0015)
    max(U) = (0.20258209 0.28362077 0.2973705) at location (-0.000375 0.00015 0.0015)

Time = 0.0065

Courant Number mean: 0.039814005 max: 3.1244295
smoothSolver:  Solving for Ux, Initial residual = 0.097568442, Final residual = 9.0266111e-09, No Iterations 12
smoothSolver:  Solving for Uy, Initial residual = 0.087980009, Final residual = 7.3714565e-09, No Iterations 12
smoothSolver:  Solving for Uz, Initial residual = 0.037086246, Final residual = 5.1980419e-09, No Iterations 13
FDICPCG:  Solving for p, Initial residual = 0.75846611, Final residual = 0.78612597, No Iterations 2
FDICPCG:  Solving for p, Initial residual = 0.70532765, Final residual = 0.59535675, No Iterations 2
time step continuity errors : sum local = 0.0098370934, global = -0.0032959304, cumulative = -0.082398259
FDICPCG:  Solving for p, Initial residual = 0.74199398, Final residual = 0.741348, No Iterations 2
FDICPCG:  Solving for p, Initial residual = 0.68279444, Final residual = 0.59616269, No Iterations 2
time step continuity errors : sum local = 0.0095780752, global = -0.0032959304, cumulative = -0.085694189
ExecutionTime = 5.29 s  ClockTime = 5 s

fieldMinMax minmaxdomain output:
    min(p) = 0 at location (-0.000525 0 0.216)
    max(p) = 5.3410788 at location (-0.00063579685 4.7926765e-05 0.0015)
    min(U) = (-0.067242488 -0.280323 0.12731024) at location (-0.00063579685 -4.7926765e-05 0.0015)
    max(U) = (0.20421122 0.28023223 0.2819445) at location (-0.000375 0.00015 0.0015)

Time = 0.007

Courant Number mean: 0.041319718 max: 3.1146995
smoothSolver:  Solving for Ux, Initial residual = 0.090091149, Final residual = 9.5547852e-09, No Iterations 12
smoothSolver:  Solving for Uy, Initial residual = 0.079709603, Final residual = 8.1876717e-09, No Iterations 12
smoothSolver:  Solving for Uz, Initial residual = 0.037523148, Final residual = 5.7657223e-09, No Iterations 13
FDICPCG:  Solving for p, Initial residual = 0.75316368, Final residual = 0.78087779, No Iterations 2
FDICPCG:  Solving for p, Initial residual = 0.70257159, Final residual = 0.59242992, No Iterations 2
time step continuity errors : sum local = 0.0095086665, global = -0.0032959304, cumulative = -0.08899012
FDICPCG:  Solving for p, Initial residual = 0.73817892, Final residual = 0.7395876, No Iterations 2
FDICPCG:  Solving for p, Initial residual = 0.68214049, Final residual = 0.59471899, No Iterations 2
time step continuity errors : sum local = 0.0092627173, global = -0.0032959304, cumulative = -0.09228605
ExecutionTime = 5.62 s  ClockTime = 5 s

fieldMinMax minmaxdomain output:
    min(p) = 0 at location (-0.000525 0 0.216)
    max(p) = 5.3369792 at location (-0.00063579685 4.7926765e-05 0.0015)
    min(U) = (-0.066982021 -0.28046828 0.12906494) at location (-0.00063579685 -4.7926765e-05 0.0015)
    max(U) = (0.20481763 0.2770654 0.27648063) at location (-0.000375 0.00015 0.0015)

Time = 0.0075

Courant Number mean: 0.0430957 max: 3.0949066
smoothSolver:  Solving for Ux, Initial residual = 0.09144657, Final residual = 9.4892359e-09, No Iterations 12
smoothSolver:  Solving for Uy, Initial residual = 0.081952799, Final residual = 7.9773632e-09, No Iterations 12
smoothSolver:  Solving for Uz, Initial residual = 0.034675007, Final residual = 4.9499957e-09, No Iterations 13
FDICPCG:  Solving for p, Initial residual = 0.75420499, Final residual = 0.7822464, No Iterations 2
FDICPCG:  Solving for p, Initial residual = 0.70639636, Final residual = 0.59756084, No Iterations 2
time step continuity errors : sum local = 0.0095644562, global = -0.0032959304, cumulative = -0.09558198
FDICPCG:  Solving for p, Initial residual = 0.74020695, Final residual = 0.74255875, No Iterations 2
FDICPCG:  Solving for p, Initial residual = 0.68449393, Final residual = 0.59776199, No Iterations 2
time step continuity errors : sum local = 0.0093060559, global = -0.0032959304, cumulative = -0.098877911
ExecutionTime = 6 s  ClockTime = 6 s

fieldMinMax minmaxdomain output:
    min(p) = 0 at location (-0.000525 0 0.216)
    max(p) = 5.3682817 at location (-0.00063579685 4.7926765e-05 0.0015)
    min(U) = (-0.066567674 -0.27928025 0.13601183) at location (-0.00063579685 -4.7926765e-05 0.0015)
    max(U) = (0.20430493 0.27401006 0.2811603) at location (-0.000375 0.00015 0.0015)

Time = 0.008

Courant Number mean: 0.044470059 max: 3.0682989
smoothSolver:  Solving for Ux, Initial residual = 0.08906795, Final residual = 8.6486217e-09, No Iterations 12
smoothSolver:  Solving for Uy, Initial residual = 0.079090075, Final residual = 7.5444375e-09, No Iterations 12
smoothSolver:  Solving for Uz, Initial residual = 0.033091406, Final residual = 4.5660397e-09, No Iterations 13
FDICPCG:  Solving for p, Initial residual = 0.77644902, Final residual = 0.80528767, No Iterations 2
FDICPCG:  Solving for p, Initial residual = 0.72276371, Final residual = 0.61200671, No Iterations 2
time step continuity errors : sum local = 0.0095010051, global = -0.0032959304, cumulative = -0.10217384
FDICPCG:  Solving for p, Initial residual = 0.75803743, Final residual = 0.76121365, No Iterations 2
FDICPCG:  Solving for p, Initial residual = 0.69995613, Final residual = 0.61095847, No Iterations 2
time step continuity errors : sum local = 0.0092096839, global = -0.0032959304, cumulative = -0.10546977
ExecutionTime = 6.3 s  ClockTime = 6 s

fieldMinMax minmaxdomain output:
    min(p) = 0 at location (-0.000525 0 0.216)
    max(p) = 5.4120787 at location (-0.00063579685 4.7926765e-05 0.0015)
    min(U) = (-0.065659705 -0.27663649 0.1439386) at location (-0.00063579685 -4.7926765e-05 0.0015)
    max(U) = (0.20279808 0.27040659 0.29071692) at location (-0.000375 0.00015 0.0015)

Time = 0.0085

Courant Number mean: 0.046043269 max: 3.0336747
smoothSolver:  Solving for Ux, Initial residual = 0.085389858, Final residual = 8.9027907e-09, No Iterations 12
smoothSolver:  Solving for Uy, Initial residual = 0.077635445, Final residual = 7.6570879e-09, No Iterations 12
smoothSolver:  Solving for Uz, Initial residual = 0.03121821, Final residual = 4.4478078e-09, No Iterations 13
FDICPCG:  Solving for p, Initial residual = 0.75931582, Final residual = 0.78730114, No Iterations 2
FDICPCG:  Solving for p, Initial residual = 0.70784138, Final residual = 0.59822649, No Iterations 2
time step continuity errors : sum local = 0.0091695202, global = -0.0032959304, cumulative = -0.1087657
FDICPCG:  Solving for p, Initial residual = 0.74109749, Final residual = 0.74661807, No Iterations 2
FDICPCG:  Solving for p, Initial residual = 0.68589855, Final residual = 0.59836502, No Iterations 2
time step continuity errors : sum local = 0.0089295205, global = -0.0032959304, cumulative = -0.11206163
ExecutionTime = 6.6 s  ClockTime = 6 s

fieldMinMax minmaxdomain output:
    min(p) = 0 at location (-0.000525 0 0.216)
    max(p) = 5.4505579 at location (-0.00063579685 4.7926765e-05 0.0015)
    min(U) = (-0.064125232 -0.27270458 0.15006349) at location (-0.00063579685 -4.7926765e-05 0.0015)
    max(U) = (0.20040239 0.26631409 0.30009067) at location (-0.000375 0.00015 0.0015)

Time = 0.009

Courant Number mean: 0.047577907 max: 2.9918443
smoothSolver:  Solving for Ux, Initial residual = 0.086918847, Final residual = 8.1056868e-09, No Iterations 12
smoothSolver:  Solving for Uy, Initial residual = 0.078747108, Final residual = 7.0778156e-09, No Iterations 12
smoothSolver:  Solving for Uz, Initial residual = 0.0289785, Final residual = 3.7078154e-09, No Iterations 13
FDICPCG:  Solving for p, Initial residual = 0.7631721, Final residual = 0.79334888, No Iterations 2
FDICPCG:  Solving for p, Initial residual = 0.71405086, Final residual = 0.60637893, No Iterations 2
time step continuity errors : sum local = 0.0092922806, global = -0.0032959304, cumulative = -0.11535756
FDICPCG:  Solving for p, Initial residual = 0.74707379, Final residual = 0.75308242, No Iterations 2
FDICPCG:  Solving for p, Initial residual = 0.69233468, Final residual = 0.60496623, No Iterations 2
time step continuity errors : sum local = 0.0090198748, global = -0.0032959304, cumulative = -0.11865349
ExecutionTime = 6.98 s  ClockTime = 7 s

fieldMinMax minmaxdomain output:
    min(p) = 0 at location (-0.000525 0 0.216)
    max(p) = 5.4783054 at location (-0.00063579685 4.7926765e-05 0.0015)
    min(U) = (-0.06224623 -0.26796194 0.15383811) at location (-0.00063579685 -4.7926765e-05 0.0015)
    max(U) = (0.19727653 0.26179452 0.30706534) at location (-0.000375 0.00015 0.0015)

Time = 0.0095

Courant Number mean: 0.048928946 max: 2.9436554
smoothSolver:  Solving for Ux, Initial residual = 0.082337422, Final residual = 8.2890114e-09, No Iterations 12
smoothSolver:  Solving for Uy, Initial residual = 0.075584015, Final residual = 7.2421472e-09, No Iterations 12
smoothSolver:  Solving for Uz, Initial residual = 0.028082502, Final residual = 3.8080191e-09, No Iterations 13
FDICPCG:  Solving for p, Initial residual = 0.76319033, Final residual = 0.79271689, No Iterations 2
FDICPCG:  Solving for p, Initial residual = 0.71322155, Final residual = 0.60526522, No Iterations 2
time step continuity errors : sum local = 0.0090185292, global = -0.0032959304, cumulative = -0.12194942
FDICPCG:  Solving for p, Initial residual = 0.74728788, Final residual = 0.75356245, No Iterations 2
FDICPCG:  Solving for p, Initial residual = 0.69109523, Final residual = 0.60310458, No Iterations 2
time step continuity errors : sum local = 0.0087412906, global = -0.0032959304, cumulative = -0.12524535
ExecutionTime = 7.38 s  ClockTime = 7 s

fieldMinMax minmaxdomain output:
    min(p) = 0 at location (-0.000525 0 0.216)
    max(p) = 5.5000035 at location (-0.00063579685 4.7926765e-05 0.0015)
    min(U) = (-0.060209308 -0.26276376 0.15637482) at location (-0.00063579685 -4.7926765e-05 0.0015)
    max(U) = (0.19361008 0.2570404 0.3124912) at location (-0.000375 0.00015 0.0015)

Time = 0.01

Courant Number mean: 0.050520901 max: 2.8903343
smoothSolver:  Solving for Ux, Initial residual = 0.083538227, Final residual = 7.8934223e-09, No Iterations 12
smoothSolver:  Solving for Uy, Initial residual = 0.077014334, Final residual = 6.8450298e-09, No Iterations 12
smoothSolver:  Solving for Uz, Initial residual = 0.026533524, Final residual = 3.2901632e-09, No Iterations 13
FDICPCG:  Solving for p, Initial residual = 0.76458565, Final residual = 0.79358261, No Iterations 2
FDICPCG:  Solving for p, Initial residual = 0.71439494, Final residual = 0.60937709, No Iterations 2
time step continuity errors : sum local = 0.0090485168, global = -0.0032959304, cumulative = -0.12854128
FDICPCG:  Solving for p, Initial residual = 0.74958793, Final residual = 0.75624257, No Iterations 2
FDICPCG:  Solving for p, Initial residual = 0.69404521, Final residual = 0.60830919, No Iterations 2
time step continuity errors : sum local = 0.0087959627, global = -0.0032959304, cumulative = -0.13183721
ExecutionTime = 7.99 s  ClockTime = 8 s

fieldMinMax minmaxdomain output:
    min(p) = 0 at location (-0.000525 0 0.216)
    max(p) = 5.5238592 at location (-0.00063579685 4.7926765e-05 0.0015)
    min(U) = (-0.058222594 -0.25742809 0.15938458) at location (-0.00063579685 -4.7926765e-05 0.0015)
    max(U) = (0.18962699 0.25222934 0.31879928) at location (-0.000375 0.00015 0.0015)

Time = 0.0105

Courant Number mean: 0.051797803 max: 2.8334005
smoothSolver:  Solving for Ux, Initial residual = 0.080189152, Final residual = 7.8477706e-09, No Iterations 12
smoothSolver:  Solving for Uy, Initial residual = 0.073535512, Final residual = 6.9788815e-09, No Iterations 12
smoothSolver:  Solving for Uz, Initial residual = 0.025292425, Final residual = 3.3270803e-09, No Iterations 13
FDICPCG:  Solving for p, Initial residual = 0.77014093, Final residual = 0.79706177, No Iterations 2
FDICPCG:  Solving for p, Initial residual = 0.7164687, Final residual = 0.6113677, No Iterations 2
time step continuity errors : sum local = 0.0088559106, global = -0.0032959304, cumulative = -0.13513314
FDICPCG:  Solving for p, Initial residual = 0.75466566, Final residual = 0.76041921, No Iterations 2
FDICPCG:  Solving for p, Initial residual = 0.69566451, Final residual = 0.60998197, No Iterations 2
time step continuity errors : sum local = 0.0085947578, global = -0.0032959304, cumulative = -0.13842908
ExecutionTime = 8.44 s  ClockTime = 8 s

fieldMinMax minmaxdomain output:
    min(p) = 0 at location (-0.000525 0 0.216)
    max(p) = 5.5552912 at location (-0.00063579685 4.7926765e-05 0.0015)
    min(U) = (-0.05628728 -0.25215914 0.16410918) at location (-0.00063579685 -4.7926765e-05 0.0015)
    max(U) = (0.18544178 0.24766068 0.32827942) at location (-0.000375 0.00015 0.0015)

Time = 0.011

Courant Number mean: 0.053246303 max: 2.7742861
smoothSolver:  Solving for Ux, Initial residual = 0.080889538, Final residual = 8.0920843e-09, No Iterations 12
smoothSolver:  Solving for Uy, Initial residual = 0.074334798, Final residual = 7.0717603e-09, No Iterations 12
smoothSolver:  Solving for Uz, Initial residual = 0.024268341, Final residual = 9.5355817e-09, No Iterations 12
FDICPCG:  Solving for p, Initial residual = 0.76120892, Final residual = 0.78745046, No Iterations 2
FDICPCG:  Solving for p, Initial residual = 0.70694204, Final residual = 0.60503223, No Iterations 2
time step continuity errors : sum local = 0.0086878746, global = -0.0032959304, cumulative = -0.14172501
FDICPCG:  Solving for p, Initial residual = 0.74545312, Final residual = 0.75150342, No Iterations 2
FDICPCG:  Solving for p, Initial residual = 0.68741105, Final residual = 0.60454295, No Iterations 2
time step continuity errors : sum local = 0.0084658574, global = -0.0032959304, cumulative = -0.14502094
ExecutionTime = 8.8 s  ClockTime = 8 s

fieldMinMax minmaxdomain output:
    min(p) = 0 at location (-0.000525 0 0.216)
    max(p) = 5.5944289 at location (-0.00063579685 4.7926765e-05 0.0015)
    min(U) = (-0.054415974 -0.24694274 0.17068998) at location (-0.00063579685 -4.7926765e-05 0.0015)
    max(U) = (0.18112517 0.24343851 0.34155199) at location (-0.000375 0.00015 0.0015)

Time = 0.0115

Courant Number mean: 0.054499385 max: 2.7141457
smoothSolver:  Solving for Ux, Initial residual = 0.079501753, Final residual = 7.8120299e-09, No Iterations 12
smoothSolver:  Solving for Uy, Initial residual = 0.07276416, Final residual = 6.8519187e-09, No Iterations 12
smoothSolver:  Solving for Uz, Initial residual = 0.022655431, Final residual = 9.1056581e-09, No Iterations 12
FDICPCG:  Solving for p, Initial residual = 0.77222443, Final residual = 0.79757315, No Iterations 2
FDICPCG:  Solving for p, Initial residual = 0.71525279, Final residual = 0.61389705, No Iterations 2
time step continuity errors : sum local = 0.0086495567, global = -0.0032959304, cumulative = -0.14831687
FDICPCG:  Solving for p, Initial residual = 0.756305, Final residual = 0.76049773, No Iterations 2
FDICPCG:  Solving for p, Initial residual = 0.69421974, Final residual = 0.61120131, No Iterations 2
time step continuity errors : sum local = 0.0083921388, global = -0.0032959304, cumulative = -0.1516128
ExecutionTime = 9.14 s  ClockTime = 9 s

fieldMinMax minmaxdomain output:
    min(p) = 0 at location (-0.000525 0 0.216)
    max(p) = 5.6373063 at location (-0.00063579685 4.7926765e-05 0.0015)
    min(U) = (-0.05253362 -0.2417864 0.17837053) at location (-0.00063579685 -4.7926765e-05 0.0015)
    max(U) = (0.17683578 0.23967417 0.35762328) at location (-0.000375 0.00015 0.0015)

Time = 0.012

Courant Number mean: 0.055820035 max: 2.6541728
smoothSolver:  Solving for Ux, Initial residual = 0.078386008, Final residual = 8.2677758e-09, No Iterations 12
smoothSolver:  Solving for Uy, Initial residual = 0.071896464, Final residual = 7.2017058e-09, No Iterations 12
smoothSolver:  Solving for Uz, Initial residual = 0.021938248, Final residual = 8.6333822e-09, No Iterations 12
FDICPCG:  Solving for p, Initial residual = 0.76339762, Final residual = 0.78645197, No Iterations 2
FDICPCG:  Solving for p, Initial residual = 0.70473745, Final residual = 0.60431615, No Iterations 2
time step continuity errors : sum local = 0.008315256, global = -0.0032959304, cumulative = -0.15490873
FDICPCG:  Solving for p, Initial residual = 0.74621901, Final residual = 0.7507193, No Iterations 2
FDICPCG:  Solving for p, Initial residual = 0.68442228, Final residual = 0.60315403, No Iterations 2
time step continuity errors : sum local = 0.0081027404, global = -0.0032959304, cumulative = -0.15820466
ExecutionTime = 9.44 s  ClockTime = 9 s

fieldMinMax minmaxdomain output:
    min(p) = 0 at location (-0.000525 0 0.216)
    max(p) = 5.6791968 at location (-0.00063579685 4.7926765e-05 0.0015)
    min(U) = (-0.050643083 -0.23669401 0.18616669) at location (-0.00063579685 -4.7926765e-05 0.0015)
    max(U) = (0.17272382 0.23634887 0.37451868) at location (-0.000375 0.00015 0.0015)

Time = 0.0125

Courant Number mean: 0.057012811 max: 2.5951043
smoothSolver:  Solving for Ux, Initial residual = 0.077913863, Final residual = 7.8447614e-09, No Iterations 12
smoothSolver:  Solving for Uy, Initial residual = 0.071674549, Final residual = 6.7975908e-09, No Iterations 12
smoothSolver:  Solving for Uz, Initial residual = 0.020389604, Final residual = 7.8388352e-09, No Iterations 12
FDICPCG:  Solving for p, Initial residual = 0.77207003, Final residual = 0.79480787, No Iterations 2
FDICPCG:  Solving for p, Initial residual = 0.71246658, Final residual = 0.61531156, No Iterations 2
time step continuity errors : sum local = 0.0083980076, global = -0.0032959304, cumulative = -0.16150059
FDICPCG:  Solving for p, Initial residual = 0.75725862, Final residual = 0.7598705, No Iterations 2
FDICPCG:  Solving for p, Initial residual = 0.69262066, Final residual = 0.61291157, No Iterations 2
time step continuity errors : sum local = 0.0081638008, global = -0.0032959304, cumulative = -0.16479652
ExecutionTime = 9.72 s  ClockTime = 9 s

fieldMinMax minmaxdomain output:
    min(p) = 0 at location (-0.000525 0 0.216)
    max(p) = 5.7175172 at location (-0.00063579685 4.7926765e-05 0.0015)
    min(U) = (-0.04881743 -0.2317805 0.19343172) at location (-0.00063579685 -4.7926765e-05 0.0015)
    max(U) = (0.16903591 0.23344873 0.3905741) at location (-0.000375 0.00015 0.0015)

Time = 0.013

Courant Number mean: 0.058244612 max: 2.5377477
smoothSolver:  Solving for Ux, Initial residual = 0.075674124, Final residual = 8.1473626e-09, No Iterations 12
smoothSolver:  Solving for Uy, Initial residual = 0.070071556, Final residual = 7.1323338e-09, No Iterations 12
smoothSolver:  Solving for Uz, Initial residual = 0.019965619, Final residual = 7.9051885e-09, No Iterations 12
FDICPCG:  Solving for p, Initial residual = 0.76848328, Final residual = 0.78934369, No Iterations 2
FDICPCG:  Solving for p, Initial residual = 0.70689738, Final residual = 0.61060089, No Iterations 2
time step continuity errors : sum local = 0.0081137157, global = -0.0032959304, cumulative = -0.16809245
FDICPCG:  Solving for p, Initial residual = 0.75316188, Final residual = 0.75442201, No Iterations 2
FDICPCG:  Solving for p, Initial residual = 0.68634868, Final residual = 0.60728016, No Iterations 2
time step continuity errors : sum local = 0.0078786026, global = -0.0032959304, cumulative = -0.17138838
ExecutionTime = 10.11 s  ClockTime = 10 s

fieldMinMax minmaxdomain output:
    min(p) = 0 at location (-0.000525 0 0.216)
    max(p) = 5.752172 at location (-0.00063579685 4.7926765e-05 0.0015)
    min(U) = (-0.046986241 -0.22697033 0.20005786) at location (-0.00063579685 -4.7926765e-05 0.0015)
    max(U) = (0.16564991 0.23098399 0.40511748) at location (-0.000375 0.00015 0.0015)

Time = 0.0135

Courant Number mean: 0.059410873 max: 2.4821012
smoothSolver:  Solving for Ux, Initial residual = 0.075179189, Final residual = 7.6711636e-09, No Iterations 12
smoothSolver:  Solving for Uy, Initial residual = 0.070575515, Final residual = 6.8134251e-09, No Iterations 12
smoothSolver:  Solving for Uz, Initial residual = 0.018715005, Final residual = 7.0161052e-09, No Iterations 12
FDICPCG:  Solving for p, Initial residual = 0.76741657, Final residual = 0.78657916, No Iterations 2
FDICPCG:  Solving for p, Initial residual = 0.70629055, Final residual = 0.613434, No Iterations 2
time step continuity errors : sum local = 0.008110766, global = -0.0032959304, cumulative = -0.17468431
FDICPCG:  Solving for p, Initial residual = 0.75403244, Final residual = 0.75428056, No Iterations 2
FDICPCG:  Solving for p, Initial residual = 0.68727067, Final residual = 0.61116884, No Iterations 2
time step continuity errors : sum local = 0.0078997146, global = -0.0032959304, cumulative = -0.17798024
ExecutionTime = 10.43 s  ClockTime = 10 s

fieldMinMax minmaxdomain output:
    min(p) = 0 at location (-0.000525 0 0.216)
    max(p) = 5.7852143 at location (-0.00063579685 4.7926765e-05 0.0015)
    min(U) = (-0.045264896 -0.22232483 0.20648646) at location (-0.00063579685 -4.7926765e-05 0.0015)
    max(U) = (0.16249878 0.22884674 0.41856577) at location (-0.000375 0.00015 0.0015)

Time = 0.014

Courant Number mean: 0.060594135 max: 2.4278632
smoothSolver:  Solving for Ux, Initial residual = 0.073211869, Final residual = 7.9390554e-09, No Iterations 12
smoothSolver:  Solving for Uy, Initial residual = 0.069209698, Final residual = 7.0524469e-09, No Iterations 12
smoothSolver:  Solving for Uz, Initial residual = 0.018144497, Final residual = 7.1723524e-09, No Iterations 12
FDICPCG:  Solving for p, Initial residual = 0.77193649, Final residual = 0.78927241, No Iterations 2
FDICPCG:  Solving for p, Initial residual = 0.70720759, Final residual = 0.61511584, No Iterations 2
time step continuity errors : sum local = 0.0079051442, global = -0.0032959304, cumulative = -0.18127617
FDICPCG:  Solving for p, Initial residual = 0.75774031, Final residual = 0.75664283, No Iterations 2
FDICPCG:  Solving for p, Initial residual = 0.68823265, Final residual = 0.61252532, No Iterations 2
time step continuity errors : sum local = 0.0076877207, global = -0.0032959304, cumulative = -0.1845721
ExecutionTime = 10.94 s  ClockTime = 11 s

fieldMinMax minmaxdomain output:
    min(p) = 0 at location (-0.000525 0 0.216)
    max(p) = 5.8189097 at location (-0.00063579685 4.7926765e-05 0.0015)
    min(U) = (-0.043673419 -0.21786896 0.21321753) at location (-0.00063579685 -4.7926765e-05 0.0015)
    max(U) = (0.15957261 0.22696092 0.4320361) at location (-0.000375 0.00015 0.0015)

Time = 0.0145

Courant Number mean: 0.061763633 max: 2.3751329
smoothSolver:  Solving for Ux, Initial residual = 0.072683579, Final residual = 7.4969409e-09, No Iterations 12
smoothSolver:  Solving for Uy, Initial residual = 0.069123015, Final residual = 6.7951351e-09, No Iterations 12
smoothSolver:  Solving for Uz, Initial residual = 0.01719895, Final residual = 6.4720407e-09, No Iterations 12
FDICPCG:  Solving for p, Initial residual = 0.76465206, Final residual = 0.78109248, No Iterations 2
FDICPCG:  Solving for p, Initial residual = 0.70185526, Final residual = 0.61309278, No Iterations 2
time step continuity errors : sum local = 0.0078173973, global = -0.0032959304, cumulative = -0.18786803
FDICPCG:  Solving for p, Initial residual = 0.75233325, Final residual = 0.75102509, No Iterations 2
FDICPCG:  Solving for p, Initial residual = 0.68444716, Final residual = 0.6117079, No Iterations 2
time step continuity errors : sum local = 0.0076334664, global = -0.0032959304, cumulative = -0.19116396
ExecutionTime = 11.39 s  ClockTime = 11 s

fieldMinMax minmaxdomain output:
    min(p) = 0 at location (-0.000525 0 0.216)
    max(p) = 5.8546713 at location (-0.00063579685 4.7926765e-05 0.0015)
    min(U) = (-0.042206191 -0.21368906 0.22053676) at location (-0.00063579685 -4.7926765e-05 0.0015)
    max(U) = (0.15723052 0.22515324 0.44650437) at location (-0.000375 0.00015 0.0015)

Time = 0.015

Courant Number mean: 0.062903875 max: 2.3249022
smoothSolver:  Solving for Ux, Initial residual = 0.071241048, Final residual = 7.7551001e-09, No Iterations 12
smoothSolver:  Solving for Uy, Initial residual = 0.067476719, Final residual = 6.9303567e-09, No Iterations 12
smoothSolver:  Solving for Uz, Initial residual = 0.016452829, Final residual = 6.4432845e-09, No Iterations 12
FDICPCG:  Solving for p, Initial residual = 0.76991135, Final residual = 0.78364407, No Iterations 2
FDICPCG:  Solving for p, Initial residual = 0.70353843, Final residual = 0.61502698, No Iterations 2
time step continuity errors : sum local = 0.0076569233, global = -0.0032959304, cumulative = -0.19445989
FDICPCG:  Solving for p, Initial residual = 0.75535876, Final residual = 0.75177947, No Iterations 2
FDICPCG:  Solving for p, Initial residual = 0.6847722, Final residual = 0.61237368, No Iterations 2
time step continuity errors : sum local = 0.0074559059, global = -0.0032959304, cumulative = -0.19775582
ExecutionTime = 11.93 s  ClockTime = 12 s

fieldMinMax minmaxdomain output:
    min(p) = 0 at location (-0.000525 0 0.216)
    max(p) = 5.8917227 at location (-0.00063579685 4.7926765e-05 0.0015)
    min(U) = (-0.040858842 -0.20965953 0.2283693) at location (-0.00063579685 -4.7926765e-05 0.0015)
    max(U) = (0.15504617 0.22335034 0.46221203) at location (-0.000375 0.00015 0.0015)

Time = 0.0155

Courant Number mean: 0.064067185 max: 2.2762577
smoothSolver:  Solving for Ux, Initial residual = 0.070402116, Final residual = 7.4584333e-09, No Iterations 12
smoothSolver:  Solving for Uy, Initial residual = 0.066647377, Final residual = 6.7273848e-09, No Iterations 12
smoothSolver:  Solving for Uz, Initial residual = 0.015766431, Final residual = 5.9151097e-09, No Iterations 12
FDICPCG:  Solving for p, Initial residual = 0.76059041, Final residual = 0.77413434, No Iterations 2
FDICPCG:  Solving for p, Initial residual = 0.69657906, Final residual = 0.61195244, No Iterations 2
time step continuity errors : sum local = 0.0075195548, global = -0.0032959304, cumulative = -0.20105175
FDICPCG:  Solving for p, Initial residual = 0.75006358, Final residual = 0.74673289, No Iterations 2
FDICPCG:  Solving for p, Initial residual = 0.68064716, Final residual = 0.61126359, No Iterations 2
time step continuity errors : sum local = 0.0073580619, global = -0.0032959304, cumulative = -0.20434768
ExecutionTime = 12.31 s  ClockTime = 12 s

fieldMinMax minmaxdomain output:
    min(p) = 0 at location (-0.000525 0 0.216)
    max(p) = 5.9290365 at location (-0.00063579685 4.7926765e-05 0.0015)
    min(U) = (-0.039627367 -0.20576975 0.23645961) at location (-0.00063579685 -4.7926765e-05 0.0015)
    max(U) = (0.15289681 0.22132288 0.47878741) at location (-0.000375 0.00015 0.0015)

Time = 0.016

Courant Number mean: 0.065165502 max: 2.2290932
smoothSolver:  Solving for Ux, Initial residual = 0.069213262, Final residual = 7.5666942e-09, No Iterations 12
smoothSolver:  Solving for Uy, Initial residual = 0.065289491, Final residual = 6.6996464e-09, No Iterations 12
smoothSolver:  Solving for Uz, Initial residual = 0.014921483, Final residual = 5.7742262e-09, No Iterations 12
FDICPCG:  Solving for p, Initial residual = 0.77127298, Final residual = 0.78250882, No Iterations 2
FDICPCG:  Solving for p, Initial residual = 0.70315275, Final residual = 0.6190812, No Iterations 2
time step continuity errors : sum local = 0.0074513962, global = -0.0032959304, cumulative = -0.20764361
FDICPCG:  Solving for p, Initial residual = 0.75746714, Final residual = 0.75172359, No Iterations 2
FDICPCG:  Solving for p, Initial residual = 0.68544623, Final residual = 0.61640026, No Iterations 2
time step continuity errors : sum local = 0.00726284, global = -0.0032959304, cumulative = -0.21093954
ExecutionTime = 12.64 s  ClockTime = 12 s

fieldMinMax minmaxdomain output:
    min(p) = 0 at location (-0.000525 0 0.216)
    max(p) = 5.9654855 at location (-0.00063579685 4.7926765e-05 0.0015)
    min(U) = (-0.038485271 -0.2020012 0.24452628) at location (-0.00063579685 -4.7926765e-05 0.0015)
    max(U) = (0.15076777 0.21900116 0.4957594) at location (-0.000375 0.00015 0.0015)

Time = 0.0165

Courant Number mean: 0.066307737 max: 2.1835994
smoothSolver:  Solving for Ux, Initial residual = 0.067895772, Final residual = 7.3297917e-09, No Iterations 12
smoothSolver:  Solving for Uy, Initial residual = 0.063839931, Final residual = 6.576585e-09, No Iterations 12
smoothSolver:  Solving for Uz, Initial residual = 0.014462966, Final residual = 5.3797959e-09, No Iterations 12
FDICPCG:  Solving for p, Initial residual = 0.75719654, Final residual = 0.7669785, No Iterations 2
FDICPCG:  Solving for p, Initial residual = 0.69113263, Final residual = 0.61047563, No Iterations 2
time step continuity errors : sum local = 0.0072301556, global = -0.0032959304, cumulative = -0.21423547
FDICPCG:  Solving for p, Initial residual = 0.74679404, Final residual = 0.74114068, No Iterations 2
FDICPCG:  Solving for p, Initial residual = 0.67615442, Final residual = 0.61024843, No Iterations 2
time step continuity errors : sum local = 0.0070891064, global = -0.0032959304, cumulative = -0.2175314
ExecutionTime = 12.98 s  ClockTime = 13 s

fieldMinMax minmaxdomain output:
    min(p) = 0 at location (-0.000525 0 0.216)
    max(p) = 6.0008256 at location (-0.00063579685 4.7926765e-05 0.0015)
    min(U) = (-0.037457546 -0.19833492 0.252407) at location (-0.00063579685 -4.7926765e-05 0.0015)
    max(U) = (0.28152647 -0.020743282 0.28659084) at location (-0.000375 4.8695118e-21 0.0015)

Time = 0.017

Courant Number mean: 0.067391676 max: 2.1396708
smoothSolver:  Solving for Ux, Initial residual = 0.066923562, Final residual = 7.3343548e-09, No Iterations 12
smoothSolver:  Solving for Uy, Initial residual = 0.06292369, Final residual = 6.4221087e-09, No Iterations 12
smoothSolver:  Solving for Uz, Initial residual = 0.013630888, Final residual = 5.1754852e-09, No Iterations 12
FDICPCG:  Solving for p, Initial residual = 0.76997664, Final residual = 0.77809151, No Iterations 2
FDICPCG:  Solving for p, Initial residual = 0.70074413, Final residual = 0.62116479, No Iterations 2
time step continuity errors : sum local = 0.0072426777, global = -0.0032959304, cumulative = -0.22082733
FDICPCG:  Solving for p, Initial residual = 0.75709842, Final residual = 0.74885672, No Iterations 2
FDICPCG:  Solving for p, Initial residual = 0.68397187, Final residual = 0.6186628, No Iterations 2
time step continuity errors : sum local = 0.0070705421, global = -0.0032959304, cumulative = -0.22412326
ExecutionTime = 13.3 s  ClockTime = 13 s

fieldMinMax minmaxdomain output:
    min(p) = 0 at location (-0.000525 0 0.216)
    max(p) = 6.0353651 at location (-0.00063579685 4.7926765e-05 0.0015)
    min(U) = (-0.036542354 -0.19477282 0.26014074) at location (-0.00063579685 -4.7926765e-05 0.0015)
    max(U) = (0.27648297 -0.019548666 0.29913241) at location (-0.000375 4.8695118e-21 0.0015)

Time = 0.0175

Courant Number mean: 0.068498377 max: 2.0975601
smoothSolver:  Solving for Ux, Initial residual = 0.06502216, Final residual = 7.1024642e-09, No Iterations 12
smoothSolver:  Solving for Uy, Initial residual = 0.060893815, Final residual = 6.354091e-09, No Iterations 12
smoothSolver:  Solving for Uz, Initial residual = 0.013328497, Final residual = 4.8877695e-09, No Iterations 12
FDICPCG:  Solving for p, Initial residual = 0.75490328, Final residual = 0.76044904, No Iterations 2
FDICPCG:  Solving for p, Initial residual = 0.68699609, Final residual = 0.60959941, No Iterations 2
time step continuity errors : sum local = 0.0069679498, global = -0.0032959304, cumulative = -0.22741919
FDICPCG:  Solving for p, Initial residual = 0.74364647, Final residual = 0.73537521, No Iterations 2
FDICPCG:  Solving for p, Initial residual = 0.6720294, Final residual = 0.60943984, No Iterations 2
time step continuity errors : sum local = 0.0068400404, global = -0.0032959304, cumulative = -0.23071513
ExecutionTime = 13.6 s  ClockTime = 13 s

fieldMinMax minmaxdomain output:
    min(p) = 0 at location (-0.000525 0 0.216)
    max(p) = 6.0698431 at location (-0.00063579685 4.7926765e-05 0.0015)
    min(U) = (-0.035718685 -0.19130077 0.26788806) at location (-0.00063579685 -4.7926765e-05 0.0015)
    max(U) = (0.2715575 -0.018478212 0.31160093) at location (-0.000375 4.8695118e-21 0.0015)

Time = 0.018

Courant Number mean: 0.069586631 max: 2.0569539
smoothSolver:  Solving for Ux, Initial residual = 0.064219438, Final residual = 7.0115083e-09, No Iterations 12
smoothSolver:  Solving for Uy, Initial residual = 0.060341902, Final residual = 6.1651232e-09, No Iterations 12
smoothSolver:  Solving for Uz, Initial residual = 0.012515994, Final residual = 4.6460327e-09, No Iterations 12
FDICPCG:  Solving for p, Initial residual = 0.7667458, Final residual = 0.77131787, No Iterations 2
FDICPCG:  Solving for p, Initial residual = 0.69704151, Final residual = 0.62183398, No Iterations 2
time step continuity errors : sum local = 0.0070320699, global = -0.0032959304, cumulative = -0.23401106
FDICPCG:  Solving for p, Initial residual = 0.7543271, Final residual = 0.74361084, No Iterations 2
FDICPCG:  Solving for p, Initial residual = 0.68096558, Final residual = 0.6193425, No Iterations 2
time step continuity errors : sum local = 0.0068756895, global = -0.0032959304, cumulative = -0.23730699
ExecutionTime = 13.94 s  ClockTime = 14 s

fieldMinMax minmaxdomain output:
    min(p) = 0 at location (-0.000525 0 0.216)
    max(p) = 6.1048073 at location (-0.00063579685 4.7926765e-05 0.0015)
    min(U) = (-0.034945863 -0.18793815 0.27581925) at location (-0.00063579685 -4.7926765e-05 0.0015)
    max(U) = (0.26678254 -0.017513698 0.3242315) at location (-0.000375 4.8695118e-21 0.0015)

Time = 0.0185

Courant Number mean: 0.07065725 max: 2.0179294
smoothSolver:  Solving for Ux, Initial residual = 0.061990222, Final residual = 6.8721692e-09, No Iterations 12
smoothSolver:  Solving for Uy, Initial residual = 0.058013702, Final residual = 6.0629716e-09, No Iterations 12
smoothSolver:  Solving for Uz, Initial residual = 0.012301152, Final residual = 4.4519482e-09, No Iterations 12
FDICPCG:  Solving for p, Initial residual = 0.75549979, Final residual = 0.75668269, No Iterations 2
FDICPCG:  Solving for p, Initial residual = 0.68530846, Final residual = 0.61142677, No Iterations 2
time step continuity errors : sum local = 0.0067540433, global = -0.0032959304, cumulative = -0.24060292
FDICPCG:  Solving for p, Initial residual = 0.74217271, Final residual = 0.73050594, No Iterations 2
FDICPCG:  Solving for p, Initial residual = 0.66924765, Final residual = 0.60933391, No Iterations 2
time step continuity errors : sum local = 0.0066165831, global = -0.0032959304, cumulative = -0.24389885
ExecutionTime = 14.34 s  ClockTime = 14 s

fieldMinMax minmaxdomain output:
    min(p) = 0 at location (-0.000525 0 0.216)
    max(p) = 6.140406 at location (-0.00063579685 4.7926765e-05 0.0015)
    min(U) = (-0.034228233 -0.18467304 0.28402816) at location (-0.00063579685 -4.7926765e-05 0.0015)
    max(U) = (0.26215763 -0.016637081 0.33711429) at location (-0.000375 4.8695118e-21 0.0015)

Time = 0.019

Courant Number mean: 0.071731716 max: 1.9804924
smoothSolver:  Solving for Ux, Initial residual = 0.0613674, Final residual = 6.7339507e-09, No Iterations 12
smoothSolver:  Solving for Uy, Initial residual = 0.057799229, Final residual = 5.9328561e-09, No Iterations 12
smoothSolver:  Solving for Uz, Initial residual = 0.011552037, Final residual = 4.1831409e-09, No Iterations 12
FDICPCG:  Solving for p, Initial residual = 0.76278353, Final residual = 0.76373122, No Iterations 2
FDICPCG:  Solving for p, Initial residual = 0.69297635, Final residual = 0.62205965, No Iterations 2
time step continuity errors : sum local = 0.0068240703, global = -0.0032959304, cumulative = -0.24719478
FDICPCG:  Solving for p, Initial residual = 0.75121728, Final residual = 0.738021, No Iterations 2
FDICPCG:  Solving for p, Initial residual = 0.67776331, Final residual = 0.6197159, No Iterations 2
time step continuity errors : sum local = 0.0066826459, global = -0.0032959304, cumulative = -0.25049071
ExecutionTime = 14.64 s  ClockTime = 14 s

fieldMinMax minmaxdomain output:
    min(p) = 0 at location (-0.000525 0 0.216)
    max(p) = 6.1763638 at location (-0.00063579685 4.7926765e-05 0.0015)
    min(U) = (-0.033546371 -0.18148946 0.29246419) at location (-0.00063579685 -4.7926765e-05 0.0015)
    max(U) = (0.2576805 -0.015828309 0.35018077) at location (-0.000375 4.8695118e-21 0.0015)

Time = 0.0195

Courant Number mean: 0.072777065 max: 1.9446224
smoothSolver:  Solving for Ux, Initial residual = 0.059055974, Final residual = 6.5761466e-09, No Iterations 12
smoothSolver:  Solving for Uy, Initial residual = 0.055468102, Final residual = 5.7456818e-09, No Iterations 12
smoothSolver:  Solving for Uz, Initial residual = 0.01136929, Final residual = 4.0652745e-09, No Iterations 12
FDICPCG:  Solving for p, Initial residual = 0.75632406, Final residual = 0.75441397, No Iterations 2
FDICPCG:  Solving for p, Initial residual = 0.6853646, Final residual = 0.615432, No Iterations 2
time step continuity errors : sum local = 0.0065777532, global = -0.0032959304, cumulative = -0.25378664
FDICPCG:  Solving for p, Initial residual = 0.74351432, Final residual = 0.72837142, No Iterations 2
FDICPCG:  Solving for p, Initial residual = 0.66890333, Final residual = 0.61186161, No Iterations 2
time step continuity errors : sum local = 0.0064361551, global = -0.0032959304, cumulative = -0.25708257
ExecutionTime = 15.07 s  ClockTime = 15 s

fieldMinMax minmaxdomain output:
    min(p) = 0 at location (-0.000525 0 0.216)
    max(p) = 6.2123032 at location (-0.00063579685 4.7926765e-05 0.0015)
    min(U) = (-0.032886191 -0.17837743 0.30102047) at location (-0.00063579685 -4.7926765e-05 0.0015)
    max(U) = (0.25335342 -0.015080474 0.36326303) at location (-0.000375 4.8695118e-21 0.0015)

Time = 0.02

Courant Number mean: 0.073836683 max: 1.9102851
smoothSolver:  Solving for Ux, Initial residual = 0.058503937, Final residual = 6.4811435e-09, No Iterations 12
smoothSolver:  Solving for Uy, Initial residual = 0.055276589, Final residual = 5.6991749e-09, No Iterations 12
smoothSolver:  Solving for Uz, Initial residual = 0.010672083, Final residual = 3.7807041e-09, No Iterations 12
FDICPCG:  Solving for p, Initial residual = 0.75903984, Final residual = 0.75649573, No Iterations 2
FDICPCG:  Solving for p, Initial residual = 0.68911331, Final residual = 0.6222402, No Iterations 2
time step continuity errors : sum local = 0.0066249764, global = -0.0032959304, cumulative = -0.2603785
FDICPCG:  Solving for p, Initial residual = 0.74849344, Final residual = 0.73262963, No Iterations 2
FDICPCG:  Solving for p, Initial residual = 0.67473643, Final residual = 0.62016732, No Iterations 2
time step continuity errors : sum local = 0.0064987948, global = -0.0032959304, cumulative = -0.26367443
ExecutionTime = 15.63 s  ClockTime = 15 s

fieldMinMax minmaxdomain output:
    min(p) = 0 at location (-0.000525 0 0.216)
    max(p) = 6.2479663 at location (-0.00063579685 4.7926765e-05 0.0015)
    min(U) = (-0.03223345 -0.17534297 0.30960413) at location (-0.00063579685 -4.7926765e-05 0.0015)
    max(U) = (0.24918778 -0.014382931 0.37620639) at location (-0.000375 4.8695118e-21 0.0015)

Time = 0.0205

Courant Number mean: 0.074866667 max: 1.8774992
smoothSolver:  Solving for Ux, Initial residual = 0.056274778, Final residual = 6.198645e-09, No Iterations 12
smoothSolver:  Solving for Uy, Initial residual = 0.053022336, Final residual = 5.4248281e-09, No Iterations 12
smoothSolver:  Solving for Uz, Initial residual = 0.010509419, Final residual = 3.7237006e-09, No Iterations 12
FDICPCG:  Solving for p, Initial residual = 0.75569832, Final residual = 0.75060854, No Iterations 2
FDICPCG:  Solving for p, Initial residual = 0.6841408, Final residual = 0.61822311, No Iterations 2
time step continuity errors : sum local = 0.0064100454, global = -0.0032959304, cumulative = -0.26697036
FDICPCG:  Solving for p, Initial residual = 0.7433102, Final residual = 0.72564727, No Iterations 2
FDICPCG:  Solving for p, Initial residual = 0.66839914, Final residual = 0.61460005, No Iterations 2
time step continuity errors : sum local = 0.0062784049, global = -0.0032959304, cumulative = -0.27026629
ExecutionTime = 15.92 s  ClockTime = 16 s

fieldMinMax minmaxdomain output:
    min(p) = 0 at location (-0.000525 0 0.216)
    max(p) = 6.2833024 at location (-0.00063579685 4.7926765e-05 0.0015)
    min(U) = (-0.03158799 -0.17238772 0.31818068) at location (-0.00063579685 -4.7926765e-05 0.0015)
    max(U) = (0.24517489 -0.013734558 0.38893812) at location (-0.000375 4.8695118e-21 0.0015)

Time = 0.021

Courant Number mean: 0.075916281 max: 1.84616
smoothSolver:  Solving for Ux, Initial residual = 0.055680719, Final residual = 6.1752062e-09, No Iterations 12
smoothSolver:  Solving for Uy, Initial residual = 0.052609665, Final residual = 5.4462832e-09, No Iterations 12
smoothSolver:  Solving for Uz, Initial residual = 0.0098951204, Final residual = 3.4305996e-09, No Iterations 12
FDICPCG:  Solving for p, Initial residual = 0.75510855, Final residual = 0.74952029, No Iterations 2
FDICPCG:  Solving for p, Initial residual = 0.6855721, Final residual = 0.62285172, No Iterations 2
time step continuity errors : sum local = 0.0064470407, global = -0.0032959304, cumulative = -0.27356222
FDICPCG:  Solving for p, Initial residual = 0.74598163, Final residual = 0.72801852, No Iterations 2
FDICPCG:  Solving for p, Initial residual = 0.67255087, Final residual = 0.62138696, No Iterations 2
time step continuity errors : sum local = 0.0063361278, global = -0.0032959304, cumulative = -0.27685815
ExecutionTime = 16.27 s  ClockTime = 16 s

fieldMinMax minmaxdomain output:
    min(p) = 0 at location (-0.000525 0 0.216)
    max(p) = 6.3184634 at location (-0.00063579685 4.7926765e-05 0.0015)
    min(U) = (-0.030963248 -0.1695059 0.32678468) at location (-0.00063579685 -4.7926765e-05 0.0015)
    max(U) = (0.24129233 -0.013134505 0.40148167) at location (-0.000375 4.8695118e-21 0.0015)

Time = 0.0215

Courant Number mean: 0.076933909 max: 1.8160703
smoothSolver:  Solving for Ux, Initial residual = 0.053559802, Final residual = 5.8443416e-09, No Iterations 12
smoothSolver:  Solving for Uy, Initial residual = 0.050525824, Final residual = 5.0875208e-09, No Iterations 12
smoothSolver:  Solving for Uz, Initial residual = 0.0097475647, Final residual = 3.424031e-09, No Iterations 12
FDICPCG:  Solving for p, Initial residual = 0.75383113, Final residual = 0.74539793, No Iterations 2
FDICPCG:  Solving for p, Initial residual = 0.6821838, Final residual = 0.62012474, No Iterations 2
time step continuity errors : sum local = 0.0062517331, global = -0.0032959304, cumulative = -0.28015408
FDICPCG:  Solving for p, Initial residual = 0.74192569, Final residual = 0.72178009, No Iterations 2
FDICPCG:  Solving for p, Initial residual = 0.66715374, Final residual = 0.61661815, No Iterations 2
time step continuity errors : sum local = 0.0061304559, global = -0.0032959304, cumulative = -0.28345001
ExecutionTime = 16.6 s  ClockTime = 16 s

fieldMinMax minmaxdomain output:
    min(p) = 0 at location (-0.000525 0 0.216)
    max(p) = 6.3536736 at location (-0.00063579685 4.7926765e-05 0.0015)
    min(U) = (-0.030353459 -0.16670799 0.33547702) at location (-0.00063579685 -4.7926765e-05 0.0015)
    max(U) = (0.23754394 -0.01257732 0.41392988) at location (-0.000375 4.8695118e-21 0.0015)

Time = 0.022

Courant Number mean: 0.077966856 max: 1.7871932
smoothSolver:  Solving for Ux, Initial residual = 0.052903083, Final residual = 5.8639529e-09, No Iterations 12
smoothSolver:  Solving for Uy, Initial residual = 0.049844721, Final residual = 5.1599035e-09, No Iterations 12
smoothSolver:  Solving for Uz, Initial residual = 0.0092054041, Final residual = 3.1303348e-09, No Iterations 12
FDICPCG:  Solving for p, Initial residual = 0.75197401, Final residual = 0.74350723, No Iterations 2
FDICPCG:  Solving for p, Initial residual = 0.68278783, Final residual = 0.62411416, No Iterations 2
time step continuity errors : sum local = 0.0062886292, global = -0.0032959304, cumulative = -0.28674594
FDICPCG:  Solving for p, Initial residual = 0.74375459, Final residual = 0.72358104, No Iterations 2
FDICPCG:  Solving for p, Initial residual = 0.67063935, Final residual = 0.6228699, No Iterations 2
time step continuity errors : sum local = 0.006188448, global = -0.0032959304, cumulative = -0.29004187
ExecutionTime = 16.99 s  ClockTime = 17 s

fieldMinMax minmaxdomain output:
    min(p) = 0 at location (-0.000525 0 0.216)
    max(p) = 6.3890689 at location (-0.00063579685 4.7926765e-05 0.0015)
    min(U) = (-0.029748575 -0.16399896 0.34429885) at location (-0.00063579685 -4.7926765e-05 0.0015)
    max(U) = (0.2339398 -0.012061863 0.42634835) at location (-0.000375 4.8695118e-21 0.0015)

Time = 0.0225

Courant Number mean: 0.078973473 max: 1.7595691
smoothSolver:  Solving for Ux, Initial residual = 0.050973535, Final residual = 5.5260972e-09, No Iterations 12
smoothSolver:  Solving for Uy, Initial residual = 0.047946446, Final residual = 4.7414019e-09, No Iterations 12
smoothSolver:  Solving for Uz, Initial residual = 0.0090653993, Final residual = 3.1595918e-09, No Iterations 12
FDICPCG:  Solving for p, Initial residual = 0.75136174, Final residual = 0.73981461, No Iterations 2
FDICPCG:  Solving for p, Initial residual = 0.67995791, Final residual = 0.62164876, No Iterations 2
time step continuity errors : sum local = 0.0061057624, global = -0.0032959304, cumulative = -0.2933378
FDICPCG:  Solving for p, Initial residual = 0.74006579, Final residual = 0.71729638, No Iterations 2
FDICPCG:  Solving for p, Initial residual = 0.66558677, Final residual = 0.61825231, No Iterations 2
time step continuity errors : sum local = 0.0059935343, global = -0.0032959304, cumulative = -0.29663373
ExecutionTime = 17.34 s  ClockTime = 17 s

fieldMinMax minmaxdomain output:
    min(p) = 0 at location (-0.000525 0 0.216)
    max(p) = 6.4246079 at location (-0.00063579685 4.7926765e-05 0.0015)
    min(U) = (-0.029145827 -0.1613779 0.35324989) at location (-0.00063579685 -4.7926765e-05 0.0015)
    max(U) = (0.2304776 -0.011582828 0.43873617) at location (-0.000375 4.8695118e-21 0.0015)

Time = 0.023

Courant Number mean: 0.079990602 max: 1.7331824
smoothSolver:  Solving for Ux, Initial residual = 0.050192398, Final residual = 5.5624387e-09, No Iterations 12
smoothSolver:  Solving for Uy, Initial residual = 0.047119087, Final residual = 4.8574936e-09, No Iterations 12
smoothSolver:  Solving for Uz, Initial residual = 0.0085920829, Final residual = 9.3055358e-09, No Iterations 11
FDICPCG:  Solving for p, Initial residual = 0.74903988, Final residual = 0.73755098, No Iterations 2
FDICPCG:  Solving for p, Initial residual = 0.68008713, Final residual = 0.62534703, No Iterations 2
time step continuity errors : sum local = 0.0061426551, global = -0.0032959304, cumulative = -0.29992966
FDICPCG:  Solving for p, Initial residual = 0.74153445, Final residual = 0.71903267, No Iterations 2
FDICPCG:  Solving for p, Initial residual = 0.66868661, Final residual = 0.62418598, No Iterations 2
time step continuity errors : sum local = 0.0060514264, global = -0.0032959304, cumulative = -0.30322559
ExecutionTime = 17.7 s  ClockTime = 17 s

fieldMinMax minmaxdomain output:
    min(p) = 0 at location (-0.000525 0 0.216)
    max(p) = 6.4602298 at location (-0.00063579685 4.7926765e-05 0.0015)
    min(U) = (-0.028582118 -0.15888881 0.36228452) at location (-0.00063579685 -4.7926765e-05 0.0015)
    max(U) = (0.2271802 -0.011176281 0.4510304) at location (-0.000375 4.8695118e-21 0.0015)

Time = 0.0235

Courant Number mean: 0.080986368 max: 1.7081308
smoothSolver:  Solving for Ux, Initial residual = 0.048432484, Final residual = 5.2000947e-09, No Iterations 12
smoothSolver:  Solving for Uy, Initial residual = 0.04542781, Final residual = 4.4331003e-09, No Iterations 12
smoothSolver:  Solving for Uz, Initial residual = 0.008447018, Final residual = 9.4176383e-09, No Iterations 11
FDICPCG:  Solving for p, Initial residual = 0.74897409, Final residual = 0.73432949, No Iterations 2
FDICPCG:  Solving for p, Initial residual = 0.67778139, Final residual = 0.62340749, No Iterations 2
time step continuity errors : sum local = 0.0059750288, global = -0.0032959304, cumulative = -0.30652152
FDICPCG:  Solving for p, Initial residual = 0.73837572, Final residual = 0.71338544, No Iterations 2
FDICPCG:  Solving for p, Initial residual = 0.66435772, Final residual = 0.62030843, No Iterations 2
time step continuity errors : sum local = 0.0058728207, global = -0.0032959304, cumulative = -0.30981745
ExecutionTime = 18.02 s  ClockTime = 18 s

fieldMinMax minmaxdomain output:
    min(p) = 0 at location (-0.000525 0 0.216)
    max(p) = 6.4957187 at location (-0.00063579685 4.7926765e-05 0.0015)
    min(U) = (-0.027978371 -0.15645903 0.37133956) at location (-0.00063579685 -4.7926765e-05 0.0015)
    max(U) = (0.22399534 -0.01077855 0.46317204) at location (-0.000375 4.8695118e-21 0.0015)

Time = 0.024

Courant Number mean: 0.081985638 max: 1.6841308
smoothSolver:  Solving for Ux, Initial residual = 0.047518658, Final residual = 5.2779095e-09, No Iterations 12
smoothSolver:  Solving for Uy, Initial residual = 0.044478634, Final residual = 4.5479447e-09, No Iterations 12
smoothSolver:  Solving for Uz, Initial residual = 0.0080356658, Final residual = 8.6320847e-09, No Iterations 11
FDICPCG:  Solving for p, Initial residual = 0.74609173, Final residual = 0.73156955, No Iterations 2
FDICPCG:  Solving for p, Initial residual = 0.67723746, Final residual = 0.62635782, No Iterations 2
time step continuity errors : sum local = 0.0060081397, global = -0.0032959304, cumulative = -0.31311338
FDICPCG:  Solving for p, Initial residual = 0.73897276, Final residual = 0.71417524, No Iterations 2
FDICPCG:  Solving for p, Initial residual = 0.66644297, Final residual = 0.62513475, No Iterations 2
time step continuity errors : sum local = 0.0059247017, global = -0.0032959304, cumulative = -0.31640931
ExecutionTime = 18.27 s  ClockTime = 18 s

fieldMinMax minmaxdomain output:
    min(p) = 0 at location (-0.000525 0 0.216)
    max(p) = 6.5310291 at location (-0.00063579685 4.7926765e-05 0.0015)
    min(U) = (-0.027378093 -0.15411234 0.3803651) at location (-0.00063579685 -4.7926765e-05 0.0015)
    max(U) = (0.220925 -0.010412042 0.47504876) at location (-0.000375 4.8695118e-21 0.0015)

Time = 0.0245

Courant Number mean: 0.08296918 max: 1.661151
smoothSolver:  Solving for Ux, Initial residual = 0.045870359, Final residual = 4.9331666e-09, No Iterations 12
smoothSolver:  Solving for Uy, Initial residual = 0.042969603, Final residual = 4.1797165e-09, No Iterations 12
smoothSolver:  Solving for Uz, Initial residual = 0.0078913728, Final residual = 8.6905292e-09, No Iterations 11
FDICPCG:  Solving for p, Initial residual = 0.74616214, Final residual = 0.72866073, No Iterations 2
FDICPCG:  Solving for p, Initial residual = 0.67528577, Final residual = 0.62479874, No Iterations 2
time step continuity errors : sum local = 0.005855503, global = -0.0032959304, cumulative = -0.31970524
FDICPCG:  Solving for p, Initial residual = 0.73629196, Final residual = 0.70937509, No Iterations 2
FDICPCG:  Solving for p, Initial residual = 0.66302505, Final residual = 0.62231614, No Iterations 2
time step continuity errors : sum local = 0.0057653295, global = -0.0032959304, cumulative = -0.32300118
ExecutionTime = 18.58 s  ClockTime = 18 s

fieldMinMax minmaxdomain output:
    min(p) = 0 at location (-0.000525 0 0.216)
    max(p) = 6.5661737 at location (-0.00063579685 4.7926765e-05 0.0015)
    min(U) = (-0.026764924 -0.15183694 0.38937087) at location (-0.00063579685 -4.7926765e-05 0.0015)
    max(U) = (0.21796575 -0.01006573 0.48668721) at location (-0.000375 4.8695118e-21 0.0015)

Time = 0.025

Courant Number mean: 0.083951418 max: 1.6391398
smoothSolver:  Solving for Ux, Initial residual = 0.044875783, Final residual = 4.9725733e-09, No Iterations 12
smoothSolver:  Solving for Uy, Initial residual = 0.041944716, Final residual = 4.2488483e-09, No Iterations 12
smoothSolver:  Solving for Uz, Initial residual = 0.0075380007, Final residual = 8.0354589e-09, No Iterations 11
FDICPCG:  Solving for p, Initial residual = 0.74295391, Final residual = 0.72551663, No Iterations 2
FDICPCG:  Solving for p, Initial residual = 0.67438483, Final residual = 0.62721168, No Iterations 2
time step continuity errors : sum local = 0.0058852168, global = -0.0032959304, cumulative = -0.32629711
FDICPCG:  Solving for p, Initial residual = 0.73627229, Final residual = 0.70928442, No Iterations 2
FDICPCG:  Solving for p, Initial residual = 0.66418319, Final residual = 0.62595343, No Iterations 2
time step continuity errors : sum local = 0.0058086974, global = -0.0032959304, cumulative = -0.32959304
ExecutionTime = 19.06 s  ClockTime = 19 s

fieldMinMax minmaxdomain output:
    min(p) = 0 at location (-0.000525 0 0.216)
    max(p) = 6.6012313 at location (-0.00063579685 4.7926765e-05 0.0015)
    min(U) = (-0.0261501 -0.14963426 0.39836466) at location (-0.00063579685 -4.7926765e-05 0.0015)
    max(U) = (0.21511186 -0.0097381035 0.49810063) at location (-0.000375 4.8695118e-21 0.0015)

Time = 0.0255

Courant Number mean: 0.084922182 max: 1.6180352
smoothSolver:  Solving for Ux, Initial residual = 0.043386879, Final residual = 4.6801972e-09, No Iterations 12
smoothSolver:  Solving for Uy, Initial residual = 0.040639664, Final residual = 3.9484534e-09, No Iterations 12
smoothSolver:  Solving for Uz, Initial residual = 0.0073987348, Final residual = 8.0320087e-09, No Iterations 11
FDICPCG:  Solving for p, Initial residual = 0.74300487, Final residual = 0.72282556, No Iterations 2
FDICPCG:  Solving for p, Initial residual = 0.67271586, Final residual = 0.62607274, No Iterations 2
time step continuity errors : sum local = 0.0057462133, global = -0.0032959304, cumulative = -0.33288897
FDICPCG:  Solving for p, Initial residual = 0.73409884, Final residual = 0.7053484, No Iterations 2
FDICPCG:  Solving for p, Initial residual = 0.66164449, Final residual = 0.62410972, No Iterations 2
time step continuity errors : sum local = 0.0056672719, global = -0.0032959304, cumulative = -0.3361849
ExecutionTime = 19.39 s  ClockTime = 19 s

fieldMinMax minmaxdomain output:
    min(p) = 0 at location (-0.000525 0 0.216)
    max(p) = 6.636262 at location (-0.00063579685 4.7926765e-05 0.0015)
    min(U) = (-0.025537781 -0.14750048 0.40735905) at location (-0.00063579685 -4.7926765e-05 0.0015)
    max(U) = (0.21235525 -0.0094261937 0.50932882) at location (-0.000375 4.8695118e-21 0.0015)

Time = 0.026

Courant Number mean: 0.085887112 max: 1.5977647
smoothSolver:  Solving for Ux, Initial residual = 0.042399801, Final residual = 4.6713013e-09, No Iterations 12
smoothSolver:  Solving for Uy, Initial residual = 0.039555489, Final residual = 3.9570718e-09, No Iterations 12
smoothSolver:  Solving for Uz, Initial residual = 0.0070882454, Final residual = 7.5038536e-09, No Iterations 11
FDICPCG:  Solving for p, Initial residual = 0.73996825, Final residual = 0.7197964, No Iterations 2
FDICPCG:  Solving for p, Initial residual = 0.67170224, Final residual = 0.62805671, No Iterations 2
time step continuity errors : sum local = 0.0057730245, global = -0.0032959304, cumulative = -0.33948083
FDICPCG:  Solving for p, Initial residual = 0.73361935, Final residual = 0.70459576, No Iterations 2
FDICPCG:  Solving for p, Initial residual = 0.66206519, Final residual = 0.62676168, No Iterations 2
time step continuity errors : sum local = 0.0057025061, global = -0.0032959304, cumulative = -0.34277676
ExecutionTime = 19.84 s  ClockTime = 19 s

fieldMinMax minmaxdomain output:
    min(p) = 0 at location (-0.000525 0 0.216)
    max(p) = 6.6712936 at location (-0.00063579685 4.7926765e-05 0.0015)
    min(U) = (-0.024929998 -0.14543451 0.41635353) at location (-0.00063579685 -4.7926765e-05 0.0015)
    max(U) = (0.20969645 -0.0091301533 0.52039407) at location (-0.000375 4.8695118e-21 0.0015)

Time = 0.0265

Courant Number mean: 0.086843495 max: 1.5783168
smoothSolver:  Solving for Ux, Initial residual = 0.041047467, Final residual = 4.4388805e-09, No Iterations 12
smoothSolver:  Solving for Uy, Initial residual = 0.038361645, Final residual = 3.7410478e-09, No Iterations 12
smoothSolver:  Solving for Uz, Initial residual = 0.0069600632, Final residual = 7.4394841e-09, No Iterations 11
FDICPCG:  Solving for p, Initial residual = 0.73978432, Final residual = 0.71732914, No Iterations 2
FDICPCG:  Solving for p, Initial residual = 0.67031001, Final residual = 0.62738558, No Iterations 2
time step continuity errors : sum local = 0.0056475704, global = -0.0032959304, cumulative = -0.34607269
FDICPCG:  Solving for p, Initial residual = 0.73180136, Final residual = 0.70119312, No Iterations 2
FDICPCG:  Solving for p, Initial residual = 0.66003891, Final residual = 0.62549914, No Iterations 2
time step continuity errors : sum local = 0.0055755658, global = -0.0032959304, cumulative = -0.34936862
ExecutionTime = 20.21 s  ClockTime = 20 s

fieldMinMax minmaxdomain output:
    min(p) = 0 at location (-0.000525 0 0.216)
    max(p) = 6.7062777 at location (-0.00063579685 4.7926765e-05 0.0015)
    min(U) = (-0.024324566 -0.14342825 0.42533363) at location (-0.00063579685 -4.7926765e-05 0.0015)
    max(U) = (0.20712077 -0.0088529884 0.53129336) at location (-0.000375 4.8695118e-21 0.0015)

Time = 0.027

Courant Number mean: 0.08779185 max: 1.559593
smoothSolver:  Solving for Ux, Initial residual = 0.040106344, Final residual = 4.3953489e-09, No Iterations 12
smoothSolver:  Solving for Uy, Initial residual = 0.037304481, Final residual = 3.6800244e-09, No Iterations 12
smoothSolver:  Solving for Uz, Initial residual = 0.0066805962, Final residual = 7.0272699e-09, No Iterations 11
FDICPCG:  Solving for p, Initial residual = 0.7370435, Final residual = 0.71427488, No Iterations 2
FDICPCG:  Solving for p, Initial residual = 0.66909721, Final residual = 0.62882204, No Iterations 2
time step continuity errors : sum local = 0.0056699628, global = -0.0032959304, cumulative = -0.35266455
FDICPCG:  Solving for p, Initial residual = 0.73102708, Final residual = 0.70010155, No Iterations 2
FDICPCG:  Solving for p, Initial residual = 0.65998708, Final residual = 0.62747495, No Iterations 2
time step continuity errors : sum local = 0.005604668, global = -0.0032959304, cumulative = -0.35596048
ExecutionTime = 20.55 s  ClockTime = 20 s

fieldMinMax minmaxdomain output:
    min(p) = 0 at location (-0.000525 0 0.216)
    max(p) = 6.7411759 at location (-0.00063579685 4.7926765e-05 0.0015)
    min(U) = (-0.023720811 -0.1414777 0.43428055) at location (-0.00063579685 -4.7926765e-05 0.0015)
    max(U) = (0.20462101 -0.0085900499 0.54200438) at location (-0.000375 4.8695118e-21 0.0015)

Time = 0.0275

Courant Number mean: 0.088733299 max: 1.5415309
smoothSolver:  Solving for Ux, Initial residual = 0.03886712, Final residual = 4.2507582e-09, No Iterations 12
smoothSolver:  Solving for Uy, Initial residual = 0.036208555, Final residual = 3.5515716e-09, No Iterations 12
smoothSolver:  Solving for Uz, Initial residual = 0.0065640527, Final residual = 6.9073496e-09, No Iterations 11
FDICPCG:  Solving for p, Initial residual = 0.73685247, Final residual = 0.71198891, No Iterations 2
FDICPCG:  Solving for p, Initial residual = 0.66791472, Final residual = 0.6284117, No Iterations 2
time step continuity errors : sum local = 0.0055558051, global = -0.0032959304, cumulative = -0.35925641
FDICPCG:  Solving for p, Initial residual = 0.7295248, Final residual = 0.69698407, No Iterations 2
FDICPCG:  Solving for p, Initial residual = 0.6582153, Final residual = 0.62652616, No Iterations 2
time step continuity errors : sum local = 0.0054899639, global = -0.0032959304, cumulative = -0.36255234
ExecutionTime = 20.88 s  ClockTime = 20 s

fieldMinMax minmaxdomain output:
    min(p) = 0 at location (-0.000525 0 0.216)
    max(p) = 6.7759487 at location (-0.00063579685 4.7926765e-05 0.0015)
    min(U) = (0.052489461 -0.02472792 0.44276746) at location (-0.000525 -6.8173165e-21 0.0015)
    max(U) = (0.20219751 -0.0083353317 0.55251147) at location (-0.000375 4.8695118e-21 0.0015)

Time = 0.028

Courant Number mean: 0.089664589 max: 1.5241186
smoothSolver:  Solving for Ux, Initial residual = 0.037964908, Final residual = 4.1351378e-09, No Iterations 12
smoothSolver:  Solving for Uy, Initial residual = 0.03519543, Final residual = 3.4211897e-09, No Iterations 12
smoothSolver:  Solving for Uz, Initial residual = 0.0063104069, Final residual = 6.5899639e-09, No Iterations 11
FDICPCG:  Solving for p, Initial residual = 0.73414457, Final residual = 0.70894856, No Iterations 2
FDICPCG:  Solving for p, Initial residual = 0.66651917, Final residual = 0.62944134, No Iterations 2
time step continuity errors : sum local = 0.0055748922, global = -0.0032959304, cumulative = -0.36584827
FDICPCG:  Solving for p, Initial residual = 0.72835072, Final residual = 0.6956583, No Iterations 2
FDICPCG:  Solving for p, Initial residual = 0.65789831, Final residual = 0.62804219, No Iterations 2
time step continuity errors : sum local = 0.005514388, global = -0.0032959304, cumulative = -0.3691442
ExecutionTime = 21.24 s  ClockTime = 21 s

fieldMinMax minmaxdomain output:
    min(p) = 0 at location (-0.000525 0 0.216)
    max(p) = 6.8105789 at location (-0.00063579685 4.7926765e-05 0.0015)
    min(U) = (0.05185948 -0.024207529 0.45076087) at location (-0.000525 -6.8173165e-21 0.0015)
    max(U) = (0.1998439 -0.0080939507 0.56280248) at location (-0.000375 4.8695118e-21 0.0015)

Time = 0.0285

Courant Number mean: 0.090590968 max: 1.5073016
smoothSolver:  Solving for Ux, Initial residual = 0.036850067, Final residual = 4.0797536e-09, No Iterations 12
smoothSolver:  Solving for Uy, Initial residual = 0.034201505, Final residual = 3.3740838e-09, No Iterations 12
smoothSolver:  Solving for Uz, Initial residual = 0.0062056554, Final residual = 6.4461947e-09, No Iterations 11
FDICPCG:  Solving for p, Initial residual = 0.73369114, Final residual = 0.70650379, No Iterations 2
[...]
    min(U) = (-0.021102773 -0.069563246 1.2068308) at location (0.00033812783 0.0011454499 0.0015)
    max(U) = (0.060033549 0.025452904 1.5235795) at location (-0.00073736265 -0.00037383097 0.0015)

Time = 0.1935

Courant Number mean: 0.20756113 max: 0.632677
smoothSolver:  Solving for Ux, Initial residual = 0.00035648465, Final residual = 3.972592e-09, No Iterations 8
smoothSolver:  Solving for Uy, Initial residual = 0.00036690545, Final residual = 3.8584656e-09, No Iterations 8
smoothSolver:  Solving for Uz, Initial residual = 0.00051712817, Final residual = 4.5949174e-09, No Iterations 9
FDICPCG:  Solving for p, Initial residual = 0.2097555, Final residual = 0.19380541, No Iterations 2
FDICPCG:  Solving for p, Initial residual = 0.19661759, Final residual = 0.20028918, No Iterations 2
time step continuity errors : sum local = 0.0010369412, global = -0.00076523187, cumulative = -1.5408523
FDICPCG:  Solving for p, Initial residual = 0.20957063, Final residual = 0.19386372, No Iterations 2
FDICPCG:  Solving for p, Initial residual = 0.19663474, Final residual = 0.20010681, No Iterations 2
time step continuity errors : sum local = 0.0010363939, global = -0.0007652117, cumulative = -1.5416176
ExecutionTime = 133.42 s  ClockTime = 133 s

fieldMinMax minmaxdomain output:
    min(p) = 0 at location (-0.000525 0 0.216)
    max(p) = 14.939013 at location (-0.0013923955 0.00042232311 0.0015)
    min(U) = (-0.021091133 -0.069543755 1.2069827) at location (0.00033812783 0.0011454499 0.0015)
    max(U) = (0.060001184 0.025457439 1.523276) at location (-0.00073736265 -0.00037383097 0.0015)

Time = 0.194

Courant Number mean: 0.20772188 max: 0.63251621
smoothSolver:  Solving for Ux, Initial residual = 0.00035333919, Final residual = 3.9239853e-09, No Iterations 8
smoothSolver:  Solving for Uy, Initial residual = 0.00036391674, Final residual = 3.8167915e-09, No Iterations 8
smoothSolver:  Solving for Uz, Initial residual = 0.00051285534, Final residual = 4.5541004e-09, No Iterations 9
FDICPCG:  Solving for p, Initial residual = 0.20893788, Final residual = 0.19306173, No Iterations 2
FDICPCG:  Solving for p, Initial residual = 0.19587377, Final residual = 0.19951944, No Iterations 2
time step continuity errors : sum local = 0.0010327786, global = -0.00076209311, cumulative = -1.5423796
FDICPCG:  Solving for p, Initial residual = 0.20875425, Final residual = 0.1931195, No Iterations 2
FDICPCG:  Solving for p, Initial residual = 0.19589081, Final residual = 0.19933843, No Iterations 2
time step continuity errors : sum local = 0.0010322348, global = -0.00076207298, cumulative = -1.5431417
ExecutionTime = 133.67 s  ClockTime = 134 s

fieldMinMax minmaxdomain output:
    min(p) = 0 at location (-0.000525 0 0.216)
    max(p) = 14.952283 at location (-0.0013923955 0.00042232311 0.0015)
    min(U) = (-0.021079605 -0.069524471 1.2071332) at location (0.00033812783 0.0011454499 0.0015)
    max(U) = (0.059969195 0.025461992 1.5229748) at location (-0.00073736265 -0.00037383097 0.0015)

Time = 0.1945

Courant Number mean: 0.2078814 max: 0.63235698
smoothSolver:  Solving for Ux, Initial residual = 0.00035033777, Final residual = 3.8785853e-09, No Iterations 8
smoothSolver:  Solving for Uy, Initial residual = 0.00036104039, Final residual = 3.7769922e-09, No Iterations 8
smoothSolver:  Solving for Uz, Initial residual = 0.00050859275, Final residual = 4.5133221e-09, No Iterations 9
FDICPCG:  Solving for p, Initial residual = 0.20812309, Final residual = 0.19231939, No Iterations 2
FDICPCG:  Solving for p, Initial residual = 0.19513131, Final residual = 0.19875197, No Iterations 2
time step continuity errors : sum local = 0.0010286282, global = -0.00075896263, cumulative = -1.5439007
FDICPCG:  Solving for p, Initial residual = 0.20794067, Final residual = 0.19237665, No Iterations 2
FDICPCG:  Solving for p, Initial residual = 0.19514818, Final residual = 0.19857222, No Iterations 2
time step continuity errors : sum local = 0.0010280877, global = -0.00075894256, cumulative = -1.5446596
ExecutionTime = 133.99 s  ClockTime = 134 s

fieldMinMax minmaxdomain output:
    min(p) = 0 at location (-0.000525 0 0.216)
    max(p) = 14.965456 at location (-0.0013923955 0.00042232311 0.0015)
    min(U) = (-0.02106819 -0.069505392 1.2072822) at location (0.00033812783 0.0011454499 0.0015)
    max(U) = (0.059937567 0.025466514 1.5226758) at location (-0.00073736265 -0.00037383097 0.0015)

Time = 0.195

Courant Number mean: 0.20803969 max: 0.63219934
smoothSolver:  Solving for Ux, Initial residual = 0.00034739602, Final residual = 3.8316032e-09, No Iterations 8
smoothSolver:  Solving for Uy, Initial residual = 0.00035820778, Final residual = 3.7360223e-09, No Iterations 8
smoothSolver:  Solving for Uz, Initial residual = 0.00050434184, Final residual = 4.4726019e-09, No Iterations 9
FDICPCG:  Solving for p, Initial residual = 0.20731048, Final residual = 0.19157867, No Iterations 2
FDICPCG:  Solving for p, Initial residual = 0.19439039, Final residual = 0.19798628, No Iterations 2
time step continuity errors : sum local = 0.0010244875, global = -0.00075584043, cumulative = -1.5454155
FDICPCG:  Solving for p, Initial residual = 0.20712928, Final residual = 0.19163545, No Iterations 2
FDICPCG:  Solving for p, Initial residual = 0.19440723, Final residual = 0.19780785, No Iterations 2
time step continuity errors : sum local = 0.0010239507, global = -0.00075582041, cumulative = -1.5461713
ExecutionTime = 134.39 s  ClockTime = 134 s

fieldMinMax minmaxdomain output:
    min(p) = 0 at location (-0.000525 0 0.216)
    max(p) = 14.978533 at location (-0.0013923955 0.00042232311 0.0015)
    min(U) = (-0.02105689 -0.069486516 1.2074298) at location (0.00033812783 0.0011454499 0.0015)
    max(U) = (0.059906309 0.025471039 1.522379) at location (-0.00073736265 -0.00037383097 0.0015)

Time = 0.1955

Courant Number mean: 0.20819676 max: 0.6320435
smoothSolver:  Solving for Ux, Initial residual = 0.00034433673, Final residual = 3.7876288e-09, No Iterations 8
smoothSolver:  Solving for Uy, Initial residual = 0.00035536103, Final residual = 3.6967432e-09, No Iterations 8
smoothSolver:  Solving for Uz, Initial residual = 0.00050010465, Final residual = 4.4319561e-09, No Iterations 9
FDICPCG:  Solving for p, Initial residual = 0.20650034, Final residual = 0.19083914, No Iterations 2
FDICPCG:  Solving for p, Initial residual = 0.19365078, Final residual = 0.19722263, No Iterations 2
time step continuity errors : sum local = 0.001020358, global = -0.0007527265, cumulative = -1.546924
FDICPCG:  Solving for p, Initial residual = 0.20632056, Final residual = 0.19089541, No Iterations 2
FDICPCG:  Solving for p, Initial residual = 0.19366749, Final residual = 0.19704556, No Iterations 2
time step continuity errors : sum local = 0.0010198249, global = -0.00075270654, cumulative = -1.5476767
ExecutionTime = 134.72 s  ClockTime = 135 s

fieldMinMax minmaxdomain output:
    min(p) = 0 at location (-0.000525 0 0.216)
    max(p) = 14.991516 at location (-0.0013923955 0.00042232311 0.0015)
    min(U) = (-0.021045684 -0.069467855 1.207576) at location (0.00033812783 0.0011454499 0.0015)
    max(U) = (0.059875331 0.025475598 1.5220845) at location (-0.00073736265 -0.00037383097 0.0015)

Time = 0.196

Courant Number mean: 0.20835259 max: 0.63188995
smoothSolver:  Solving for Ux, Initial residual = 0.00034147632, Final residual = 3.7445783e-09, No Iterations 8
smoothSolver:  Solving for Uy, Initial residual = 0.00035232883, Final residual = 3.6553705e-09, No Iterations 8
smoothSolver:  Solving for Uz, Initial residual = 0.00049588208, Final residual = 4.3914033e-09, No Iterations 9
FDICPCG:  Solving for p, Initial residual = 0.20569284, Final residual = 0.19010136, No Iterations 2
FDICPCG:  Solving for p, Initial residual = 0.19291275, Final residual = 0.19646093, No Iterations 2
time step continuity errors : sum local = 0.0010162395, global = -0.00074962085, cumulative = -1.5484263
FDICPCG:  Solving for p, Initial residual = 0.20551434, Final residual = 0.19015724, No Iterations 2
FDICPCG:  Solving for p, Initial residual = 0.19292945, Final residual = 0.19628512, No Iterations 2
time step continuity errors : sum local = 0.0010157098, global = -0.00074960095, cumulative = -1.5491759
ExecutionTime = 135.09 s  ClockTime = 135 s

fieldMinMax minmaxdomain output:
    min(p) = 0 at location (-0.000525 0 0.216)
    max(p) = 15.004408 at location (-0.0013923955 0.00042232311 0.0015)
    min(U) = (-0.021034587 -0.069449394 1.2077208) at location (0.00033812783 0.0011454499 0.0015)
    max(U) = (0.05984475 0.025480183 1.5217925) at location (-0.00073736265 -0.00037383097 0.0015)

Time = 0.1965

Courant Number mean: 0.2085072 max: 0.63173777
smoothSolver:  Solving for Ux, Initial residual = 0.00033866462, Final residual = 3.7025216e-09, No Iterations 8
smoothSolver:  Solving for Uy, Initial residual = 0.00034965499, Final residual = 3.6174117e-09, No Iterations 8
smoothSolver:  Solving for Uz, Initial residual = 0.00049167665, Final residual = 4.3509613e-09, No Iterations 9
FDICPCG:  Solving for p, Initial residual = 0.20488781, Final residual = 0.18936561, No Iterations 2
FDICPCG:  Solving for p, Initial residual = 0.19217664, Final residual = 0.19570107, No Iterations 2
time step continuity errors : sum local = 0.0010121312, global = -0.00074652349, cumulative = -1.5499225
FDICPCG:  Solving for p, Initial residual = 0.20471048, Final residual = 0.189421, No Iterations 2
FDICPCG:  Solving for p, Initial residual = 0.19219325, Final residual = 0.19552653, No Iterations 2
time step continuity errors : sum local = 0.0010116047, global = -0.00074650365, cumulative = -1.550669
ExecutionTime = 135.48 s  ClockTime = 135 s

fieldMinMax minmaxdomain output:
    min(p) = 0 at location (-0.000525 0 0.216)
    max(p) = 15.017209 at location (-0.0013923955 0.00042232311 0.0015)
    min(U) = (-0.021023591 -0.069431122 1.2078643) at location (0.00033812783 0.0011454499 0.0015)
    max(U) = (0.059814529 0.025484804 1.5215026) at location (-0.00073736265 -0.00037383097 0.0015)

Time = 0.197

Courant Number mean: 0.20866059 max: 0.63158689
smoothSolver:  Solving for Ux, Initial residual = 0.00033576088, Final residual = 3.6578509e-09, No Iterations 8
smoothSolver:  Solving for Uy, Initial residual = 0.00034690464, Final residual = 3.5790413e-09, No Iterations 8
smoothSolver:  Solving for Uz, Initial residual = 0.00048748993, Final residual = 4.3106453e-09, No Iterations 9
FDICPCG:  Solving for p, Initial residual = 0.20408513, Final residual = 0.18863161, No Iterations 2
FDICPCG:  Solving for p, Initial residual = 0.19144211, Final residual = 0.19494301, No Iterations 2
time step continuity errors : sum local = 0.0010080334, global = -0.00074343442, cumulative = -1.5514124
FDICPCG:  Solving for p, Initial residual = 0.20390898, Final residual = 0.18868648, No Iterations 2
FDICPCG:  Solving for p, Initial residual = 0.19145877, Final residual = 0.1947698, No Iterations 2
time step continuity errors : sum local = 0.0010075104, global = -0.00074341465, cumulative = -1.5521558
ExecutionTime = 135.84 s  ClockTime = 136 s

fieldMinMax minmaxdomain output:
    min(p) = 0 at location (-0.000525 0 0.216)
    max(p) = 15.029923 at location (-0.0013923955 0.00042232311 0.0015)
    min(U) = (-0.021012706 -0.069413044 1.2080064) at location (0.00033812783 0.0011454499 0.0015)
    max(U) = (0.059784647 0.02548942 1.5212148) at location (-0.00073736265 -0.00037383097 0.0015)

Time = 0.1975

Courant Number mean: 0.20881275 max: 0.63143742
smoothSolver:  Solving for Ux, Initial residual = 0.0003330343, Final residual = 3.6155338e-09, No Iterations 8
smoothSolver:  Solving for Uy, Initial residual = 0.00034421105, Final residual = 3.5411245e-09, No Iterations 8
smoothSolver:  Solving for Uz, Initial residual = 0.00048332305, Final residual = 4.2704721e-09, No Iterations 9
FDICPCG:  Solving for p, Initial residual = 0.2032847, Final residual = 0.18789928, No Iterations 2
FDICPCG:  Solving for p, Initial residual = 0.19070945, Final residual = 0.19418694, No Iterations 2
time step continuity errors : sum local = 0.0010039464, global = -0.00074035368, cumulative = -1.5528962
FDICPCG:  Solving for p, Initial residual = 0.20310984, Final residual = 0.18795373, No Iterations 2
FDICPCG:  Solving for p, Initial residual = 0.19072604, Final residual = 0.19401499, No Iterations 2
time step continuity errors : sum local = 0.0010034268, global = -0.00074033396, cumulative = -1.5536365
ExecutionTime = 136.13 s  ClockTime = 136 s

fieldMinMax minmaxdomain output:
    min(p) = 0 at location (-0.000525 0 0.216)
    max(p) = 15.042551 at location (-0.0013923955 0.00042232311 0.0015)
    min(U) = (-0.021001931 -0.069395159 1.2081472) at location (0.00033812783 0.0011454499 0.0015)
    max(U) = (0.048257725 0.041847596 1.5334169) at location (-0.0006310689 -0.00050894412 0.0015)

Time = 0.198

Courant Number mean: 0.20896369 max: 0.6312893
smoothSolver:  Solving for Ux, Initial residual = 0.0003302707, Final residual = 3.5751814e-09, No Iterations 8
smoothSolver:  Solving for Uy, Initial residual = 0.0003415429, Final residual = 3.5036936e-09, No Iterations 8
smoothSolver:  Solving for Uz, Initial residual = 0.0004791775, Final residual = 4.2304575e-09, No Iterations 9
FDICPCG:  Solving for p, Initial residual = 0.20248687, Final residual = 0.18716883, No Iterations 2
FDICPCG:  Solving for p, Initial residual = 0.18997853, Final residual = 0.19343271, No Iterations 2
time step continuity errors : sum local = 0.00099987013, global = -0.00073728127, cumulative = -1.5543738
FDICPCG:  Solving for p, Initial residual = 0.20231325, Final residual = 0.18722282, No Iterations 2
FDICPCG:  Solving for p, Initial residual = 0.18999501, Final residual = 0.193262, No Iterations 2
time step continuity errors : sum local = 0.00099935388, global = -0.00073726163, cumulative = -1.555111
ExecutionTime = 136.42 s  ClockTime = 136 s

fieldMinMax minmaxdomain output:
    min(p) = 0 at location (-0.000525 0 0.216)
    max(p) = 15.055095 at location (-0.0013923955 0.00042232311 0.0015)
    min(U) = (-0.020991262 -0.069377467 1.2082866) at location (0.00033812783 0.0011454499 0.0015)
    max(U) = (0.048244675 0.041824159 1.5330734) at location (-0.0006310689 -0.00050894412 0.0015)

Time = 0.1985

Courant Number mean: 0.20911342 max: 0.63114257
smoothSolver:  Solving for Ux, Initial residual = 0.00032752511, Final residual = 3.5342507e-09, No Iterations 8
smoothSolver:  Solving for Uy, Initial residual = 0.0003389639, Final residual = 3.4680832e-09, No Iterations 8
smoothSolver:  Solving for Uz, Initial residual = 0.00047505454, Final residual = 4.1906166e-09, No Iterations 9
FDICPCG:  Solving for p, Initial residual = 0.20169162, Final residual = 0.18643998, No Iterations 2
FDICPCG:  Solving for p, Initial residual = 0.18924897, Final residual = 0.19268035, No Iterations 2
time step continuity errors : sum local = 0.00099580521, global = -0.00073421725, cumulative = -1.5558453
FDICPCG:  Solving for p, Initial residual = 0.20151894, Final residual = 0.18649333, No Iterations 2
FDICPCG:  Solving for p, Initial residual = 0.18926547, Final residual = 0.19251101, No Iterations 2
time step continuity errors : sum local = 0.00099529237, global = -0.00073419767, cumulative = -1.5565795
ExecutionTime = 136.8 s  ClockTime = 137 s

fieldMinMax minmaxdomain output:
    min(p) = 0 at location (-0.000525 0 0.216)
    max(p) = 15.067557 at location (-0.0013923955 0.00042232311 0.0015)
    min(U) = (-0.020980696 -0.069359962 1.2084247) at location (0.00033812783 0.0011454499 0.0015)
    max(U) = (0.04823184 0.04180097 1.5327326) at location (-0.0006310689 -0.00050894412 0.0015)

Time = 0.199

Courant Number mean: 0.20926194 max: 0.63099749
smoothSolver:  Solving for Ux, Initial residual = 0.00032490061, Final residual = 3.4950358e-09, No Iterations 8
smoothSolver:  Solving for Uy, Initial residual = 0.0003364815, Final residual = 3.4334853e-09, No Iterations 8
smoothSolver:  Solving for Uz, Initial residual = 0.00047095519, Final residual = 4.1509636e-09, No Iterations 9
FDICPCG:  Solving for p, Initial residual = 0.20089869, Final residual = 0.18571238, No Iterations 2
FDICPCG:  Solving for p, Initial residual = 0.18852073, Final residual = 0.19192989, No Iterations 2
time step continuity errors : sum local = 0.00099175197, global = -0.00073116165, cumulative = -1.5573106
FDICPCG:  Solving for p, Initial residual = 0.20072701, Final residual = 0.18576519, No Iterations 2
FDICPCG:  Solving for p, Initial residual = 0.18853723, Final residual = 0.19176182, No Iterations 2
time step continuity errors : sum local = 0.00099124229, global = -0.00073114214, cumulative = -1.5580418
ExecutionTime = 137.26 s  ClockTime = 137 s

fieldMinMax minmaxdomain output:
    min(p) = 0 at location (-0.000525 0 0.216)
    max(p) = 15.079938 at location (-0.0013923955 0.00042232311 0.0015)
    min(U) = (-0.020970237 -0.069342644 1.2085616) at location (0.00033812783 0.0011454499 0.0015)
    max(U) = (0.048219225 0.041778014 1.5323944) at location (-0.0006310689 -0.00050894412 0.0015)

Time = 0.1995

Courant Number mean: 0.20940925 max: 0.63085448
smoothSolver:  Solving for Ux, Initial residual = 0.00032226928, Final residual = 3.4556713e-09, No Iterations 8
smoothSolver:  Solving for Uy, Initial residual = 0.00033401186, Final residual = 3.3988447e-09, No Iterations 8
smoothSolver:  Solving for Uz, Initial residual = 0.00046688082, Final residual = 4.1115128e-09, No Iterations 9
FDICPCG:  Solving for p, Initial residual = 0.200108, Final residual = 0.18498662, No Iterations 2
FDICPCG:  Solving for p, Initial residual = 0.18779436, Final residual = 0.19118136, No Iterations 2
time step continuity errors : sum local = 0.00098770986, global = -0.00072811451, cumulative = -1.5587699
FDICPCG:  Solving for p, Initial residual = 0.19993743, Final residual = 0.18503894, No Iterations 2
FDICPCG:  Solving for p, Initial residual = 0.18781078, Final residual = 0.19101454, No Iterations 2
time step continuity errors : sum local = 0.00098720351, global = -0.00072809508, cumulative = -1.559498
ExecutionTime = 137.64 s  ClockTime = 138 s

fieldMinMax minmaxdomain output:
    min(p) = 0 at location (-0.000525 0 0.216)
    max(p) = 15.092241 at location (-0.0013923955 0.00042232311 0.0015)
    min(U) = (-0.020959883 -0.069325512 1.2086971) at location (0.00033812783 0.0011454499 0.0015)
    max(U) = (0.048206795 0.041755298 1.532059) at location (-0.0006310689 -0.00050894412 0.0015)

Time = 0.2

Courant Number mean: 0.20955537 max: 0.63071284
smoothSolver:  Solving for Ux, Initial residual = 0.0003196956, Final residual = 3.4177397e-09, No Iterations 8
smoothSolver:  Solving for Uy, Initial residual = 0.00033158401, Final residual = 3.3658409e-09, No Iterations 8
smoothSolver:  Solving for Uz, Initial residual = 0.00046283278, Final residual = 4.0722781e-09, No Iterations 9
FDICPCG:  Solving for p, Initial residual = 0.1993197, Final residual = 0.18426276, No Iterations 2
FDICPCG:  Solving for p, Initial residual = 0.1870699, Final residual = 0.19043484, No Iterations 2
time step continuity errors : sum local = 0.00098367938, global = -0.00072507591, cumulative = -1.5602231
FDICPCG:  Solving for p, Initial residual = 0.19915021, Final residual = 0.18431455, No Iterations 2
FDICPCG:  Solving for p, Initial residual = 0.18708638, Final residual = 0.19026948, No Iterations 2
time step continuity errors : sum local = 0.00098317716, global = -0.00072505655, cumulative = -1.5609481
ExecutionTime = 138.21 s  ClockTime = 138 s

fieldMinMax minmaxdomain output:
    min(p) = 0 at location (-0.000525 0 0.216)
    max(p) = 15.104466 at location (-0.0013923955 0.00042232311 0.0015)
    min(U) = (-0.020949629 -0.06930856 1.2088314) at location (0.00033812783 0.0011454499 0.0015)
    max(U) = (0.048194557 0.041732822 1.5317262) at location (-0.0006310689 -0.00050894412 0.0015)

End

