/*---------------------------------------------------------------------------*\
| =========                 |                                                 |
| \\      /  F ield         | OpenFOAM: The Open Source CFD Toolbox           |
|  \\    /   O peration     | Version:  2112                                  |
|   \\  /    A nd           | Website:  www.openfoam.com                      |
|    \\/     M anipulation  |                                                 |
\*---------------------------------------------------------------------------*/
Build  : _14aeaf8dab-20211220 OPENFOAM=2112 version=v2112
Arch   : "LSB;label=32;scalar=64"
Exec   : scalarTransportFoam
Date   : Jun 12 2022
Time   : 20:02:29
Host   : Songruis-MacBook-Air.local
PID    : 14052
I/O    : uncollated
Case   : /Users/songruili/Documents/Learn/10th_OpenFOAM_3_weeks/7_RTDTJunction/RTDInlet1
nProcs : 1
trapFpe: Floating point exception trapping - not supported on this platform
fileModificationChecking : Monitoring run-time modified files using timeStampMaster (fileModificationSkew 5, maxFileModificationPolls 20)
allowSystemOperations : Allowing user-supplied system call operations

// * * * * * * * * * * * * * * * * * * * * * * * * * * * * * * * * * * * * * //
Create time

Create mesh for time = 0


SIMPLE: no convergence criteria found. Calculations will run for 120 steps.

Reading field T

Reading field U

Reading transportProperties

Reading diffusivity DT

Reading/calculating face flux field phi

No finite volume options present

Calculating scalar transport

Courant Number mean: 0.212202 max: 0.55119
Time = 0.1

DILUPBiCGStab:  Solving for T, Initial residual = 1, Final residual = 2.77271e-07, No Iterations 2
Time = 0.2

DILUPBiCGStab:  Solving for T, Initial residual = 0.17192, Final residual = 5.90659e-08, No Iterations 2
Time = 0.3

DILUPBiCGStab:  Solving for T, Initial residual = 0.0952926, Final residual = 3.03146e-08, No Iterations 2
Time = 0.4

DILUPBiCGStab:  Solving for T, Initial residual = 0.0635734, Final residual = 6.46728e-07, No Iterations 2
Time = 0.5

DILUPBiCGStab:  Solving for T, Initial residual = 0.0467728, Final residual = 4.08748e-07, No Iterations 2
Time = 0.6

DILUPBiCGStab:  Solving for T, Initial residual = 0.0369995, Final residual = 3.05013e-07, No Iterations 2
Time = 0.7

DILUPBiCGStab:  Solving for T, Initial residual = 0.0305676, Final residual = 2.45992e-07, No Iterations 2
Time = 0.8

DILUPBiCGStab:  Solving for T, Initial residual = 0.0261441, Final residual = 2.15642e-07, No Iterations 2
Time = 0.9

DILUPBiCGStab:  Solving for T, Initial residual = 0.0229002, Final residual = 1.89717e-07, No Iterations 2
Time = 1

DILUPBiCGStab:  Solving for T, Initial residual = 0.0204073, Final residual = 1.64896e-07, No Iterations 2
Time = 1.1

DILUPBiCGStab:  Solving for T, Initial residual = 0.0184694, Final residual = 1.43349e-07, No Iterations 2
Time = 1.2

DILUPBiCGStab:  Solving for T, Initial residual = 0.016917, Final residual = 1.25302e-07, No Iterations 2
Time = 1.3

DILUPBiCGStab:  Solving for T, Initial residual = 0.0156293, Final residual = 1.09721e-07, No Iterations 2
Time = 1.4

DILUPBiCGStab:  Solving for T, Initial residual = 0.0145365, Final residual = 9.67253e-08, No Iterations 2
Time = 1.5

DILUPBiCGStab:  Solving for T, Initial residual = 0.0136113, Final residual = 8.5967e-08, No Iterations 2
Time = 1.6

DILUPBiCGStab:  Solving for T, Initial residual = 0.012819, Final residual = 7.68572e-08, No Iterations 2
Time = 1.7

DILUPBiCGStab:  Solving for T, Initial residual = 0.0121278, Final residual = 6.91912e-08, No Iterations 2
Time = 1.8

DILUPBiCGStab:  Solving for T, Initial residual = 0.0115125, Final residual = 6.27093e-08, No Iterations 2
Time = 1.9

DILUPBiCGStab:  Solving for T, Initial residual = 0.0109592, Final residual = 5.73453e-08, No Iterations 2
Time = 2

DILUPBiCGStab:  Solving for T, Initial residual = 0.010466, Final residual = 5.30026e-08, No Iterations 2
Time = 2.1

DILUPBiCGStab:  Solving for T, Initial residual = 0.0100244, Final residual = 4.9485e-08, No Iterations 2
Time = 2.2

DILUPBiCGStab:  Solving for T, Initial residual = 0.00962666, Final residual = 4.64184e-08, No Iterations 2
Time = 2.3

DILUPBiCGStab:  Solving for T, Initial residual = 0.00926184, Final residual = 4.36976e-08, No Iterations 2
Time = 2.4

DILUPBiCGStab:  Solving for T, Initial residual = 0.00892348, Final residual = 4.12675e-08, No Iterations 2
Time = 2.5

DILUPBiCGStab:  Solving for T, Initial residual = 0.00861079, Final residual = 3.91138e-08, No Iterations 2
Time = 2.6

DILUPBiCGStab:  Solving for T, Initial residual = 0.00832357, Final residual = 3.71677e-08, No Iterations 2
Time = 2.7

DILUPBiCGStab:  Solving for T, Initial residual = 0.00805932, Final residual = 3.54386e-08, No Iterations 2
Time = 2.8

DILUPBiCGStab:  Solving for T, Initial residual = 0.00781544, Final residual = 3.38988e-08, No Iterations 2
Time = 2.9

DILUPBiCGStab:  Solving for T, Initial residual = 0.00758744, Final residual = 3.25057e-08, No Iterations 2
Time = 3

DILUPBiCGStab:  Solving for T, Initial residual = 0.00737191, Final residual = 3.12232e-08, No Iterations 2
Time = 3.1

DILUPBiCGStab:  Solving for T, Initial residual = 0.00716827, Final residual = 3.00398e-08, No Iterations 2
Time = 3.2

DILUPBiCGStab:  Solving for T, Initial residual = 0.00697749, Final residual = 2.89376e-08, No Iterations 2
Time = 3.3

DILUPBiCGStab:  Solving for T, Initial residual = 0.00679905, Final residual = 2.79044e-08, No Iterations 2
Time = 3.4

DILUPBiCGStab:  Solving for T, Initial residual = 0.00663196, Final residual = 2.69386e-08, No Iterations 2
Time = 3.5

DILUPBiCGStab:  Solving for T, Initial residual = 0.00647481, Final residual = 2.60297e-08, No Iterations 2
Time = 3.6

DILUPBiCGStab:  Solving for T, Initial residual = 0.00632534, Final residual = 2.51816e-08, No Iterations 2
Time = 3.7

DILUPBiCGStab:  Solving for T, Initial residual = 0.00618203, Final residual = 2.43936e-08, No Iterations 2
Time = 3.8

DILUPBiCGStab:  Solving for T, Initial residual = 0.00604514, Final residual = 2.36791e-08, No Iterations 2
Time = 3.9

DILUPBiCGStab:  Solving for T, Initial residual = 0.00591527, Final residual = 2.30014e-08, No Iterations 2
Time = 4

DILUPBiCGStab:  Solving for T, Initial residual = 0.00579233, Final residual = 9.99356e-07, No Iterations 1
Time = 4.1

DILUPBiCGStab:  Solving for T, Initial residual = 0.00567592, Final residual = 9.72318e-07, No Iterations 1
Time = 4.2

DILUPBiCGStab:  Solving for T, Initial residual = 0.00556537, Final residual = 9.46804e-07, No Iterations 1
Time = 4.3

DILUPBiCGStab:  Solving for T, Initial residual = 0.00545943, Final residual = 9.22564e-07, No Iterations 1
Time = 4.4

DILUPBiCGStab:  Solving for T, Initial residual = 0.00535698, Final residual = 8.99723e-07, No Iterations 1
Time = 4.5

DILUPBiCGStab:  Solving for T, Initial residual = 0.00525818, Final residual = 8.78493e-07, No Iterations 1
Time = 4.6

DILUPBiCGStab:  Solving for T, Initial residual = 0.00516341, Final residual = 8.58209e-07, No Iterations 1
Time = 4.7

DILUPBiCGStab:  Solving for T, Initial residual = 0.00507285, Final residual = 8.38945e-07, No Iterations 1
Time = 4.8

DILUPBiCGStab:  Solving for T, Initial residual = 0.0049864, Final residual = 8.20611e-07, No Iterations 1
Time = 4.9

DILUPBiCGStab:  Solving for T, Initial residual = 0.00490385, Final residual = 8.03079e-07, No Iterations 1
Time = 5

DILUPBiCGStab:  Solving for T, Initial residual = 0.00482454, Final residual = 7.86117e-07, No Iterations 1
Time = 5.1

DILUPBiCGStab:  Solving for T, Initial residual = 0.00474771, Final residual = 7.69592e-07, No Iterations 1
Time = 5.2

DILUPBiCGStab:  Solving for T, Initial residual = 0.00467301, Final residual = 7.53873e-07, No Iterations 1
Time = 5.3

DILUPBiCGStab:  Solving for T, Initial residual = 0.00460059, Final residual = 7.38936e-07, No Iterations 1
Time = 5.4

DILUPBiCGStab:  Solving for T, Initial residual = 0.00453077, Final residual = 7.24632e-07, No Iterations 1
Time = 5.5

DILUPBiCGStab:  Solving for T, Initial residual = 0.00446362, Final residual = 7.11404e-07, No Iterations 1
Time = 5.6

DILUPBiCGStab:  Solving for T, Initial residual = 0.00439912, Final residual = 6.98635e-07, No Iterations 1
Time = 5.7

DILUPBiCGStab:  Solving for T, Initial residual = 0.00433714, Final residual = 6.86256e-07, No Iterations 1
Time = 5.8

DILUPBiCGStab:  Solving for T, Initial residual = 0.00427725, Final residual = 6.74293e-07, No Iterations 1
Time = 5.9

DILUPBiCGStab:  Solving for T, Initial residual = 0.00421893, Final residual = 6.62698e-07, No Iterations 1
Time = 6

DILUPBiCGStab:  Solving for T, Initial residual = 0.00416196, Final residual = 6.51521e-07, No Iterations 1
Time = 6.1

DILUPBiCGStab:  Solving for T, Initial residual = 0.00410648, Final residual = 6.40734e-07, No Iterations 1
Time = 6.2

DILUPBiCGStab:  Solving for T, Initial residual = 0.00405269, Final residual = 6.30241e-07, No Iterations 1
Time = 6.3

DILUPBiCGStab:  Solving for T, Initial residual = 0.00400067, Final residual = 6.20091e-07, No Iterations 1
Time = 6.4

DILUPBiCGStab:  Solving for T, Initial residual = 0.00395045, Final residual = 6.10294e-07, No Iterations 1
Time = 6.5

DILUPBiCGStab:  Solving for T, Initial residual = 0.00390201, Final residual = 6.01023e-07, No Iterations 1
Time = 6.6

DILUPBiCGStab:  Solving for T, Initial residual = 0.00385506, Final residual = 5.92253e-07, No Iterations 1
Time = 6.7

DILUPBiCGStab:  Solving for T, Initial residual = 0.00380928, Final residual = 5.83699e-07, No Iterations 1
Time = 6.8

DILUPBiCGStab:  Solving for T, Initial residual = 0.00376441, Final residual = 5.75354e-07, No Iterations 1
Time = 6.9

DILUPBiCGStab:  Solving for T, Initial residual = 0.00372048, Final residual = 5.67224e-07, No Iterations 1
Time = 7

DILUPBiCGStab:  Solving for T, Initial residual = 0.00367767, Final residual = 5.59298e-07, No Iterations 1
Time = 7.1

DILUPBiCGStab:  Solving for T, Initial residual = 0.00363607, Final residual = 5.51561e-07, No Iterations 1
Time = 7.2

DILUPBiCGStab:  Solving for T, Initial residual = 0.00359573, Final residual = 5.44063e-07, No Iterations 1
Time = 7.3

DILUPBiCGStab:  Solving for T, Initial residual = 0.00355665, Final residual = 5.36792e-07, No Iterations 1
Time = 7.4

DILUPBiCGStab:  Solving for T, Initial residual = 0.00351877, Final residual = 5.29748e-07, No Iterations 1
Time = 7.5

DILUPBiCGStab:  Solving for T, Initial residual = 0.00348184, Final residual = 5.22889e-07, No Iterations 1
Time = 7.6

DILUPBiCGStab:  Solving for T, Initial residual = 0.00344562, Final residual = 5.16381e-07, No Iterations 1
Time = 7.7

DILUPBiCGStab:  Solving for T, Initial residual = 0.00341004, Final residual = 5.10137e-07, No Iterations 1
Time = 7.8

DILUPBiCGStab:  Solving for T, Initial residual = 0.00337514, Final residual = 5.03979e-07, No Iterations 1
Time = 7.9

DILUPBiCGStab:  Solving for T, Initial residual = 0.00334106, Final residual = 4.97926e-07, No Iterations 1
Time = 8

DILUPBiCGStab:  Solving for T, Initial residual = 0.00330786, Final residual = 4.92009e-07, No Iterations 1
Time = 8.1

DILUPBiCGStab:  Solving for T, Initial residual = 0.00327558, Final residual = 4.86241e-07, No Iterations 1
Time = 8.2

DILUPBiCGStab:  Solving for T, Initial residual = 0.00324423, Final residual = 4.80676e-07, No Iterations 1
Time = 8.3

DILUPBiCGStab:  Solving for T, Initial residual = 0.00321372, Final residual = 4.7523e-07, No Iterations 1
Time = 8.4

DILUPBiCGStab:  Solving for T, Initial residual = 0.00318387, Final residual = 4.69897e-07, No Iterations 1
Time = 8.5

DILUPBiCGStab:  Solving for T, Initial residual = 0.00315452, Final residual = 4.6468e-07, No Iterations 1
Time = 8.6

DILUPBiCGStab:  Solving for T, Initial residual = 0.00312562, Final residual = 4.59626e-07, No Iterations 1
Time = 8.7

DILUPBiCGStab:  Solving for T, Initial residual = 0.00309721, Final residual = 4.54775e-07, No Iterations 1
Time = 8.8

DILUPBiCGStab:  Solving for T, Initial residual = 0.00306941, Final residual = 4.50077e-07, No Iterations 1
Time = 8.9

DILUPBiCGStab:  Solving for T, Initial residual = 0.00304226, Final residual = 4.45447e-07, No Iterations 1
Time = 9

DILUPBiCGStab:  Solving for T, Initial residual = 0.00301579, Final residual = 4.40901e-07, No Iterations 1
Time = 9.1

DILUPBiCGStab:  Solving for T, Initial residual = 0.00299002, Final residual = 4.3643e-07, No Iterations 1
Time = 9.2

DILUPBiCGStab:  Solving for T, Initial residual = 0.00296489, Final residual = 4.32105e-07, No Iterations 1
Time = 9.3

DILUPBiCGStab:  Solving for T, Initial residual = 0.00294027, Final residual = 4.27907e-07, No Iterations 1
Time = 9.4

DILUPBiCGStab:  Solving for T, Initial residual = 0.00291602, Final residual = 4.23799e-07, No Iterations 1
Time = 9.5

DILUPBiCGStab:  Solving for T, Initial residual = 0.0028921, Final residual = 4.19735e-07, No Iterations 1
Time = 9.6

DILUPBiCGStab:  Solving for T, Initial residual = 0.00286853, Final residual = 4.15734e-07, No Iterations 1
Time = 9.7

DILUPBiCGStab:  Solving for T, Initial residual = 0.0028454, Final residual = 4.11821e-07, No Iterations 1
Time = 9.8

DILUPBiCGStab:  Solving for T, Initial residual = 0.00282277, Final residual = 4.08065e-07, No Iterations 1
Time = 9.9

DILUPBiCGStab:  Solving for T, Initial residual = 0.00280063, Final residual = 4.04409e-07, No Iterations 1
Time = 10

DILUPBiCGStab:  Solving for T, Initial residual = 0.00277903, Final residual = 4.00843e-07, No Iterations 1
Time = 10.1

DILUPBiCGStab:  Solving for T, Initial residual = 0.00275795, Final residual = 3.97362e-07, No Iterations 1
Time = 10.2

DILUPBiCGStab:  Solving for T, Initial residual = 0.0027373, Final residual = 3.93983e-07, No Iterations 1
Time = 10.3

DILUPBiCGStab:  Solving for T, Initial residual = 0.00271696, Final residual = 3.90658e-07, No Iterations 1
Time = 10.4

DILUPBiCGStab:  Solving for T, Initial residual = 0.00269686, Final residual = 3.87356e-07, No Iterations 1
Time = 10.5

DILUPBiCGStab:  Solving for T, Initial residual = 0.00267702, Final residual = 3.84097e-07, No Iterations 1
Time = 10.6

DILUPBiCGStab:  Solving for T, Initial residual = 0.00265746, Final residual = 3.80885e-07, No Iterations 1
Time = 10.7

DILUPBiCGStab:  Solving for T, Initial residual = 0.00263828, Final residual = 3.77748e-07, No Iterations 1
Time = 10.8

DILUPBiCGStab:  Solving for T, Initial residual = 0.00261948, Final residual = 3.74688e-07, No Iterations 1
Time = 10.9

DILUPBiCGStab:  Solving for T, Initial residual = 0.0026011, Final residual = 3.71764e-07, No Iterations 1
Time = 11

DILUPBiCGStab:  Solving for T, Initial residual = 0.00258314, Final residual = 3.68939e-07, No Iterations 1
Time = 11.1

DILUPBiCGStab:  Solving for T, Initial residual = 0.00256555, Final residual = 3.66166e-07, No Iterations 1
Time = 11.2

DILUPBiCGStab:  Solving for T, Initial residual = 0.00254825, Final residual = 3.63467e-07, No Iterations 1
Time = 11.3

DILUPBiCGStab:  Solving for T, Initial residual = 0.00253116, Final residual = 3.60799e-07, No Iterations 1
Time = 11.4

DILUPBiCGStab:  Solving for T, Initial residual = 0.00251425, Final residual = 3.58149e-07, No Iterations 1
Time = 11.5

DILUPBiCGStab:  Solving for T, Initial residual = 0.00249754, Final residual = 3.55516e-07, No Iterations 1
Time = 11.6

DILUPBiCGStab:  Solving for T, Initial residual = 0.00248108, Final residual = 3.52924e-07, No Iterations 1
Time = 11.7

DILUPBiCGStab:  Solving for T, Initial residual = 0.00246492, Final residual = 3.50399e-07, No Iterations 1
Time = 11.8

DILUPBiCGStab:  Solving for T, Initial residual = 0.00244907, Final residual = 3.47958e-07, No Iterations 1
Time = 11.9

DILUPBiCGStab:  Solving for T, Initial residual = 0.00243355, Final residual = 3.45599e-07, No Iterations 1
Time = 12

DILUPBiCGStab:  Solving for T, Initial residual = 0.00241838, Final residual = 3.43334e-07, No Iterations 1
Time = 12.1

DILUPBiCGStab:  Solving for T, Initial residual = 0.00240347, Final residual = 3.41123e-07, No Iterations 1
Time = 12.2

DILUPBiCGStab:  Solving for T, Initial residual = 0.00238878, Final residual = 3.38957e-07, No Iterations 1
Time = 12.3

DILUPBiCGStab:  Solving for T, Initial residual = 0.00237423, Final residual = 3.36811e-07, No Iterations 1
Time = 12.4

DILUPBiCGStab:  Solving for T, Initial residual = 0.00235982, Final residual = 3.34693e-07, No Iterations 1
Time = 12.5

DILUPBiCGStab:  Solving for T, Initial residual = 0.00234557, Final residual = 3.32611e-07, No Iterations 1
Time = 12.6

DILUPBiCGStab:  Solving for T, Initial residual = 0.00233154, Final residual = 3.30578e-07, No Iterations 1
Time = 12.7

DILUPBiCGStab:  Solving for T, Initial residual = 0.00231774, Final residual = 3.2859e-07, No Iterations 1
Time = 12.8

DILUPBiCGStab:  Solving for T, Initial residual = 0.00230419, Final residual = 3.26653e-07, No Iterations 1
Time = 12.9

DILUPBiCGStab:  Solving for T, Initial residual = 0.00229092, Final residual = 3.24772e-07, No Iterations 1
Time = 13

DILUPBiCGStab:  Solving for T, Initial residual = 0.00227792, Final residual = 3.22967e-07, No Iterations 1
Time = 13.1

DILUPBiCGStab:  Solving for T, Initial residual = 0.00226514, Final residual = 3.21228e-07, No Iterations 1
Time = 13.2

DILUPBiCGStab:  Solving for T, Initial residual = 0.00225251, Final residual = 3.19543e-07, No Iterations 1
Time = 13.3

DILUPBiCGStab:  Solving for T, Initial residual = 0.00224, Final residual = 3.17894e-07, No Iterations 1
Time = 13.4

DILUPBiCGStab:  Solving for T, Initial residual = 0.0022276, Final residual = 3.16273e-07, No Iterations 1
Time = 13.5

DILUPBiCGStab:  Solving for T, Initial residual = 0.00221532, Final residual = 3.14684e-07, No Iterations 1
Time = 13.6

DILUPBiCGStab:  Solving for T, Initial residual = 0.00220321, Final residual = 3.13128e-07, No Iterations 1
Time = 13.7

DILUPBiCGStab:  Solving for T, Initial residual = 0.0021913, Final residual = 3.11615e-07, No Iterations 1
Time = 13.8

DILUPBiCGStab:  Solving for T, Initial residual = 0.00217959, Final residual = 3.10149e-07, No Iterations 1
Time = 13.9

DILUPBiCGStab:  Solving for T, Initial residual = 0.00216811, Final residual = 3.08736e-07, No Iterations 1
Time = 14

DILUPBiCGStab:  Solving for T, Initial residual = 0.00215685, Final residual = 3.07376e-07, No Iterations 1
Time = 14.1

DILUPBiCGStab:  Solving for T, Initial residual = 0.00214578, Final residual = 3.06087e-07, No Iterations 1
Time = 14.2

DILUPBiCGStab:  Solving for T, Initial residual = 0.00213483, Final residual = 3.04878e-07, No Iterations 1
Time = 14.3

DILUPBiCGStab:  Solving for T, Initial residual = 0.00212398, Final residual = 3.03701e-07, No Iterations 1
Time = 14.4

DILUPBiCGStab:  Solving for T, Initial residual = 0.00211321, Final residual = 3.02552e-07, No Iterations 1
Time = 14.5

DILUPBiCGStab:  Solving for T, Initial residual = 0.00210253, Final residual = 3.01432e-07, No Iterations 1
Time = 14.6

DILUPBiCGStab:  Solving for T, Initial residual = 0.00209198, Final residual = 3.00342e-07, No Iterations 1
Time = 14.7

DILUPBiCGStab:  Solving for T, Initial residual = 0.0020816, Final residual = 2.99289e-07, No Iterations 1
Time = 14.8

DILUPBiCGStab:  Solving for T, Initial residual = 0.00207139, Final residual = 2.98292e-07, No Iterations 1
Time = 14.9

DILUPBiCGStab:  Solving for T, Initial residual = 0.00206136, Final residual = 2.97352e-07, No Iterations 1
Time = 15

DILUPBiCGStab:  Solving for T, Initial residual = 0.00205152, Final residual = 2.96472e-07, No Iterations 1
Time = 15.1

DILUPBiCGStab:  Solving for T, Initial residual = 0.00204184, Final residual = 2.95663e-07, No Iterations 1
Time = 15.2

DILUPBiCGStab:  Solving for T, Initial residual = 0.00203227, Final residual = 2.94912e-07, No Iterations 1
Time = 15.3

DILUPBiCGStab:  Solving for T, Initial residual = 0.00202279, Final residual = 2.94208e-07, No Iterations 1
Time = 15.4

DILUPBiCGStab:  Solving for T, Initial residual = 0.00201336, Final residual = 2.93532e-07, No Iterations 1
Time = 15.5

DILUPBiCGStab:  Solving for T, Initial residual = 0.00200401, Final residual = 2.92885e-07, No Iterations 1
Time = 15.6

DILUPBiCGStab:  Solving for T, Initial residual = 0.00199476, Final residual = 2.92281e-07, No Iterations 1
Time = 15.7

DILUPBiCGStab:  Solving for T, Initial residual = 0.00198563, Final residual = 2.91721e-07, No Iterations 1
Time = 15.8

DILUPBiCGStab:  Solving for T, Initial residual = 0.00197664, Final residual = 2.91217e-07, No Iterations 1
Time = 15.9

DILUPBiCGStab:  Solving for T, Initial residual = 0.00196781, Final residual = 2.9077e-07, No Iterations 1
Time = 16

DILUPBiCGStab:  Solving for T, Initial residual = 0.00195914, Final residual = 2.90382e-07, No Iterations 1
Time = 16.1

DILUPBiCGStab:  Solving for T, Initial residual = 0.00195061, Final residual = 2.90056e-07, No Iterations 1
Time = 16.2

DILUPBiCGStab:  Solving for T, Initial residual = 0.00194219, Final residual = 2.89791e-07, No Iterations 1
Time = 16.3

DILUPBiCGStab:  Solving for T, Initial residual = 0.00193384, Final residual = 2.89581e-07, No Iterations 1
Time = 16.4

DILUPBiCGStab:  Solving for T, Initial residual = 0.00192555, Final residual = 2.89406e-07, No Iterations 1
Time = 16.5

DILUPBiCGStab:  Solving for T, Initial residual = 0.0019173, Final residual = 2.89271e-07, No Iterations 1
Time = 16.6

DILUPBiCGStab:  Solving for T, Initial residual = 0.00190913, Final residual = 2.89175e-07, No Iterations 1
Time = 16.7

DILUPBiCGStab:  Solving for T, Initial residual = 0.00190105, Final residual = 2.89119e-07, No Iterations 1
Time = 16.8

DILUPBiCGStab:  Solving for T, Initial residual = 0.00189309, Final residual = 2.89119e-07, No Iterations 1
Time = 16.9

DILUPBiCGStab:  Solving for T, Initial residual = 0.00188526, Final residual = 2.89175e-07, No Iterations 1
Time = 17

DILUPBiCGStab:  Solving for T, Initial residual = 0.00187755, Final residual = 2.89293e-07, No Iterations 1
Time = 17.1

DILUPBiCGStab:  Solving for T, Initial residual = 0.00186999, Final residual = 2.8948e-07, No Iterations 1
Time = 17.2

DILUPBiCGStab:  Solving for T, Initial residual = 0.00186253, Final residual = 2.8972e-07, No Iterations 1
Time = 17.3

DILUPBiCGStab:  Solving for T, Initial residual = 0.00185513, Final residual = 2.9001e-07, No Iterations 1
Time = 17.4

DILUPBiCGStab:  Solving for T, Initial residual = 0.00184779, Final residual = 2.90338e-07, No Iterations 1
Time = 17.5

DILUPBiCGStab:  Solving for T, Initial residual = 0.00184048, Final residual = 2.90698e-07, No Iterations 1
Time = 17.6

DILUPBiCGStab:  Solving for T, Initial residual = 0.00183323, Final residual = 2.91106e-07, No Iterations 1
Time = 17.7

DILUPBiCGStab:  Solving for T, Initial residual = 0.00182604, Final residual = 2.91566e-07, No Iterations 1
Time = 17.8

DILUPBiCGStab:  Solving for T, Initial residual = 0.00181894, Final residual = 2.92072e-07, No Iterations 1
Time = 17.9

DILUPBiCGStab:  Solving for T, Initial residual = 0.00181195, Final residual = 2.92634e-07, No Iterations 1
Time = 18

DILUPBiCGStab:  Solving for T, Initial residual = 0.00180507, Final residual = 2.93258e-07, No Iterations 1
Time = 18.1

DILUPBiCGStab:  Solving for T, Initial residual = 0.0017983, Final residual = 2.93939e-07, No Iterations 1
Time = 18.2

DILUPBiCGStab:  Solving for T, Initial residual = 0.00179164, Final residual = 2.94673e-07, No Iterations 1
Time = 18.3

DILUPBiCGStab:  Solving for T, Initial residual = 0.00178505, Final residual = 2.95445e-07, No Iterations 1
Time = 18.4

DILUPBiCGStab:  Solving for T, Initial residual = 0.0017785, Final residual = 2.96254e-07, No Iterations 1
Time = 18.5

DILUPBiCGStab:  Solving for T, Initial residual = 0.00177198, Final residual = 2.97102e-07, No Iterations 1
Time = 18.6

DILUPBiCGStab:  Solving for T, Initial residual = 0.00176551, Final residual = 2.97985e-07, No Iterations 1
Time = 18.7

DILUPBiCGStab:  Solving for T, Initial residual = 0.00175908, Final residual = 2.98916e-07, No Iterations 1
Time = 18.8

DILUPBiCGStab:  Solving for T, Initial residual = 0.00175273, Final residual = 2.99881e-07, No Iterations 1
Time = 18.9

DILUPBiCGStab:  Solving for T, Initial residual = 0.00174645, Final residual = 3.00896e-07, No Iterations 1
Time = 19

DILUPBiCGStab:  Solving for T, Initial residual = 0.00174026, Final residual = 3.01959e-07, No Iterations 1
Time = 19.1

DILUPBiCGStab:  Solving for T, Initial residual = 0.00173417, Final residual = 3.03063e-07, No Iterations 1
Time = 19.2

DILUPBiCGStab:  Solving for T, Initial residual = 0.00172818, Final residual = 3.04217e-07, No Iterations 1
Time = 19.3

DILUPBiCGStab:  Solving for T, Initial residual = 0.00172225, Final residual = 3.05412e-07, No Iterations 1
Time = 19.4

DILUPBiCGStab:  Solving for T, Initial residual = 0.00171636, Final residual = 3.06635e-07, No Iterations 1
Time = 19.5

DILUPBiCGStab:  Solving for T, Initial residual = 0.00171051, Final residual = 3.07881e-07, No Iterations 1
Time = 19.6

DILUPBiCGStab:  Solving for T, Initial residual = 0.00170468, Final residual = 3.09149e-07, No Iterations 1
Time = 19.7

DILUPBiCGStab:  Solving for T, Initial residual = 0.0016989, Final residual = 3.10451e-07, No Iterations 1
Time = 19.8

DILUPBiCGStab:  Solving for T, Initial residual = 0.00169317, Final residual = 3.11798e-07, No Iterations 1
Time = 19.9

DILUPBiCGStab:  Solving for T, Initial residual = 0.00168751, Final residual = 3.13176e-07, No Iterations 1
Time = 20

DILUPBiCGStab:  Solving for T, Initial residual = 0.00168192, Final residual = 3.14579e-07, No Iterations 1
Time = 20.1

DILUPBiCGStab:  Solving for T, Initial residual = 0.0016764, Final residual = 3.16011e-07, No Iterations 1
Time = 20.2

DILUPBiCGStab:  Solving for T, Initial residual = 0.00167096, Final residual = 3.17463e-07, No Iterations 1
Time = 20.3

DILUPBiCGStab:  Solving for T, Initial residual = 0.00166557, Final residual = 3.18935e-07, No Iterations 1
Time = 20.4

DILUPBiCGStab:  Solving for T, Initial residual = 0.00166022, Final residual = 3.20447e-07, No Iterations 1
Time = 20.5

DILUPBiCGStab:  Solving for T, Initial residual = 0.0016549, Final residual = 3.21981e-07, No Iterations 1
Time = 20.6

DILUPBiCGStab:  Solving for T, Initial residual = 0.00164961, Final residual = 3.23516e-07, No Iterations 1
Time = 20.7

DILUPBiCGStab:  Solving for T, Initial residual = 0.00164435, Final residual = 3.25068e-07, No Iterations 1
Time = 20.8

DILUPBiCGStab:  Solving for T, Initial residual = 0.00163914, Final residual = 3.26638e-07, No Iterations 1
Time = 20.9

DILUPBiCGStab:  Solving for T, Initial residual = 0.00163399, Final residual = 3.28239e-07, No Iterations 1
Time = 21

DILUPBiCGStab:  Solving for T, Initial residual = 0.0016289, Final residual = 3.29849e-07, No Iterations 1
Time = 21.1

DILUPBiCGStab:  Solving for T, Initial residual = 0.00162386, Final residual = 3.31466e-07, No Iterations 1
Time = 21.2

DILUPBiCGStab:  Solving for T, Initial residual = 0.00161887, Final residual = 3.33101e-07, No Iterations 1
Time = 21.3

DILUPBiCGStab:  Solving for T, Initial residual = 0.00161392, Final residual = 3.34748e-07, No Iterations 1
Time = 21.4

DILUPBiCGStab:  Solving for T, Initial residual = 0.00160898, Final residual = 3.36392e-07, No Iterations 1
Time = 21.5

DILUPBiCGStab:  Solving for T, Initial residual = 0.00160408, Final residual = 3.38032e-07, No Iterations 1
Time = 21.6

DILUPBiCGStab:  Solving for T, Initial residual = 0.0015992, Final residual = 3.39677e-07, No Iterations 1
Time = 21.7

DILUPBiCGStab:  Solving for T, Initial residual = 0.00159436, Final residual = 3.41316e-07, No Iterations 1
Time = 21.8

DILUPBiCGStab:  Solving for T, Initial residual = 0.00158956, Final residual = 3.42959e-07, No Iterations 1
Time = 21.9

DILUPBiCGStab:  Solving for T, Initial residual = 0.00158481, Final residual = 3.44611e-07, No Iterations 1
Time = 22

DILUPBiCGStab:  Solving for T, Initial residual = 0.0015801, Final residual = 3.46253e-07, No Iterations 1
Time = 22.1

DILUPBiCGStab:  Solving for T, Initial residual = 0.00157544, Final residual = 3.47883e-07, No Iterations 1
Time = 22.2

DILUPBiCGStab:  Solving for T, Initial residual = 0.0015708, Final residual = 3.4951e-07, No Iterations 1
Time = 22.3

DILUPBiCGStab:  Solving for T, Initial residual = 0.00156617, Final residual = 3.51123e-07, No Iterations 1
Time = 22.4

DILUPBiCGStab:  Solving for T, Initial residual = 0.00156155, Final residual = 3.52731e-07, No Iterations 1
Time = 22.5

DILUPBiCGStab:  Solving for T, Initial residual = 0.00155694, Final residual = 3.54329e-07, No Iterations 1
Time = 22.6

DILUPBiCGStab:  Solving for T, Initial residual = 0.00155234, Final residual = 3.55919e-07, No Iterations 1
Time = 22.7

DILUPBiCGStab:  Solving for T, Initial residual = 0.00154778, Final residual = 3.57479e-07, No Iterations 1
Time = 22.8

DILUPBiCGStab:  Solving for T, Initial residual = 0.00154324, Final residual = 3.59013e-07, No Iterations 1
Time = 22.9

DILUPBiCGStab:  Solving for T, Initial residual = 0.00153873, Final residual = 3.60522e-07, No Iterations 1
Time = 23

DILUPBiCGStab:  Solving for T, Initial residual = 0.00153424, Final residual = 3.61993e-07, No Iterations 1
Time = 23.1

DILUPBiCGStab:  Solving for T, Initial residual = 0.00152976, Final residual = 3.63428e-07, No Iterations 1
Time = 23.2

DILUPBiCGStab:  Solving for T, Initial residual = 0.00152531, Final residual = 3.64825e-07, No Iterations 1
Time = 23.3

DILUPBiCGStab:  Solving for T, Initial residual = 0.0015209, Final residual = 3.66198e-07, No Iterations 1
Time = 23.4

DILUPBiCGStab:  Solving for T, Initial residual = 0.00151651, Final residual = 3.67541e-07, No Iterations 1
Time = 23.5

DILUPBiCGStab:  Solving for T, Initial residual = 0.00151216, Final residual = 3.68874e-07, No Iterations 1
Time = 23.6

DILUPBiCGStab:  Solving for T, Initial residual = 0.00150784, Final residual = 3.702e-07, No Iterations 1
Time = 23.7

DILUPBiCGStab:  Solving for T, Initial residual = 0.00150353, Final residual = 3.71517e-07, No Iterations 1
Time = 23.8

DILUPBiCGStab:  Solving for T, Initial residual = 0.00149922, Final residual = 3.72795e-07, No Iterations 1
Time = 23.9

DILUPBiCGStab:  Solving for T, Initial residual = 0.0014949, Final residual = 3.74031e-07, No Iterations 1
Time = 24

DILUPBiCGStab:  Solving for T, Initial residual = 0.0014906, Final residual = 3.75232e-07, No Iterations 1
Time = 24.1

DILUPBiCGStab:  Solving for T, Initial residual = 0.00148633, Final residual = 3.76403e-07, No Iterations 1
Time = 24.2

DILUPBiCGStab:  Solving for T, Initial residual = 0.00148207, Final residual = 3.77548e-07, No Iterations 1
Time = 24.3

DILUPBiCGStab:  Solving for T, Initial residual = 0.00147783, Final residual = 3.78671e-07, No Iterations 1
Time = 24.4

DILUPBiCGStab:  Solving for T, Initial residual = 0.0014736, Final residual = 3.79757e-07, No Iterations 1
Time = 24.5

DILUPBiCGStab:  Solving for T, Initial residual = 0.00146938, Final residual = 3.80807e-07, No Iterations 1
Time = 24.6

DILUPBiCGStab:  Solving for T, Initial residual = 0.00146518, Final residual = 3.8182e-07, No Iterations 1
Time = 24.7

DILUPBiCGStab:  Solving for T, Initial residual = 0.001461, Final residual = 3.82809e-07, No Iterations 1
Time = 24.8

DILUPBiCGStab:  Solving for T, Initial residual = 0.00145683, Final residual = 3.83763e-07, No Iterations 1
Time = 24.9

DILUPBiCGStab:  Solving for T, Initial residual = 0.00145265, Final residual = 3.84692e-07, No Iterations 1
Time = 25

DILUPBiCGStab:  Solving for T, Initial residual = 0.00144849, Final residual = 3.85584e-07, No Iterations 1
Time = 25.1

DILUPBiCGStab:  Solving for T, Initial residual = 0.00144433, Final residual = 3.86436e-07, No Iterations 1
Time = 25.2

DILUPBiCGStab:  Solving for T, Initial residual = 0.00144017, Final residual = 3.87253e-07, No Iterations 1
Time = 25.3

DILUPBiCGStab:  Solving for T, Initial residual = 0.00143603, Final residual = 3.88035e-07, No Iterations 1
Time = 25.4

DILUPBiCGStab:  Solving for T, Initial residual = 0.00143188, Final residual = 3.88778e-07, No Iterations 1
Time = 25.5

DILUPBiCGStab:  Solving for T, Initial residual = 0.00142775, Final residual = 3.89482e-07, No Iterations 1
Time = 25.6

DILUPBiCGStab:  Solving for T, Initial residual = 0.00142361, Final residual = 3.90149e-07, No Iterations 1
Time = 25.7

DILUPBiCGStab:  Solving for T, Initial residual = 0.00141947, Final residual = 3.90779e-07, No Iterations 1
Time = 25.8

DILUPBiCGStab:  Solving for T, Initial residual = 0.00141532, Final residual = 3.9138e-07, No Iterations 1
Time = 25.9

DILUPBiCGStab:  Solving for T, Initial residual = 0.00141115, Final residual = 3.91942e-07, No Iterations 1
Time = 26

DILUPBiCGStab:  Solving for T, Initial residual = 0.00140697, Final residual = 3.92464e-07, No Iterations 1
Time = 26.1

DILUPBiCGStab:  Solving for T, Initial residual = 0.00140277, Final residual = 3.92948e-07, No Iterations 1
Time = 26.2

DILUPBiCGStab:  Solving for T, Initial residual = 0.00139856, Final residual = 3.93401e-07, No Iterations 1
Time = 26.3

DILUPBiCGStab:  Solving for T, Initial residual = 0.00139434, Final residual = 3.93827e-07, No Iterations 1
Time = 26.4

DILUPBiCGStab:  Solving for T, Initial residual = 0.00139011, Final residual = 3.94219e-07, No Iterations 1
Time = 26.5

DILUPBiCGStab:  Solving for T, Initial residual = 0.00138587, Final residual = 3.94573e-07, No Iterations 1
Time = 26.6

DILUPBiCGStab:  Solving for T, Initial residual = 0.00138163, Final residual = 3.94898e-07, No Iterations 1
Time = 26.7

DILUPBiCGStab:  Solving for T, Initial residual = 0.00137738, Final residual = 3.95189e-07, No Iterations 1
Time = 26.8

DILUPBiCGStab:  Solving for T, Initial residual = 0.00137311, Final residual = 3.95448e-07, No Iterations 1
Time = 26.9

DILUPBiCGStab:  Solving for T, Initial residual = 0.00136883, Final residual = 3.95671e-07, No Iterations 1
Time = 27

DILUPBiCGStab:  Solving for T, Initial residual = 0.00136453, Final residual = 3.95864e-07, No Iterations 1
Time = 27.1

DILUPBiCGStab:  Solving for T, Initial residual = 0.00136023, Final residual = 3.96033e-07, No Iterations 1
Time = 27.2

DILUPBiCGStab:  Solving for T, Initial residual = 0.00135591, Final residual = 3.96167e-07, No Iterations 1
Time = 27.3

DILUPBiCGStab:  Solving for T, Initial residual = 0.00135158, Final residual = 3.9626e-07, No Iterations 1
Time = 27.4

DILUPBiCGStab:  Solving for T, Initial residual = 0.00134722, Final residual = 3.96322e-07, No Iterations 1
Time = 27.5

DILUPBiCGStab:  Solving for T, Initial residual = 0.00134283, Final residual = 3.96347e-07, No Iterations 1
Time = 27.6

DILUPBiCGStab:  Solving for T, Initial residual = 0.00133842, Final residual = 3.9634e-07, No Iterations 1
Time = 27.7

DILUPBiCGStab:  Solving for T, Initial residual = 0.00133398, Final residual = 3.96296e-07, No Iterations 1
Time = 27.8

DILUPBiCGStab:  Solving for T, Initial residual = 0.00132951, Final residual = 3.96216e-07, No Iterations 1
Time = 27.9

DILUPBiCGStab:  Solving for T, Initial residual = 0.00132501, Final residual = 3.96096e-07, No Iterations 1
Time = 28

DILUPBiCGStab:  Solving for T, Initial residual = 0.00132049, Final residual = 3.95949e-07, No Iterations 1
Time = 28.1

DILUPBiCGStab:  Solving for T, Initial residual = 0.00131594, Final residual = 3.95776e-07, No Iterations 1
Time = 28.2

DILUPBiCGStab:  Solving for T, Initial residual = 0.00131137, Final residual = 3.95572e-07, No Iterations 1
Time = 28.3

DILUPBiCGStab:  Solving for T, Initial residual = 0.00130678, Final residual = 3.95331e-07, No Iterations 1
Time = 28.4

DILUPBiCGStab:  Solving for T, Initial residual = 0.00130215, Final residual = 3.9505e-07, No Iterations 1
Time = 28.5

DILUPBiCGStab:  Solving for T, Initial residual = 0.00129749, Final residual = 3.94733e-07, No Iterations 1
Time = 28.6

DILUPBiCGStab:  Solving for T, Initial residual = 0.0012928, Final residual = 3.94382e-07, No Iterations 1
Time = 28.7

DILUPBiCGStab:  Solving for T, Initial residual = 0.00128809, Final residual = 3.94003e-07, No Iterations 1
Time = 28.8

DILUPBiCGStab:  Solving for T, Initial residual = 0.00128337, Final residual = 3.93588e-07, No Iterations 1
Time = 28.9

DILUPBiCGStab:  Solving for T, Initial residual = 0.00127862, Final residual = 3.93132e-07, No Iterations 1
Time = 29

DILUPBiCGStab:  Solving for T, Initial residual = 0.00127384, Final residual = 3.92638e-07, No Iterations 1
Time = 29.1

DILUPBiCGStab:  Solving for T, Initial residual = 0.00126904, Final residual = 3.92104e-07, No Iterations 1
Time = 29.2

DILUPBiCGStab:  Solving for T, Initial residual = 0.00126422, Final residual = 3.91527e-07, No Iterations 1
Time = 29.3

DILUPBiCGStab:  Solving for T, Initial residual = 0.00125937, Final residual = 3.9091e-07, No Iterations 1
Time = 29.4

DILUPBiCGStab:  Solving for T, Initial residual = 0.00125449, Final residual = 3.90262e-07, No Iterations 1
Time = 29.5

DILUPBiCGStab:  Solving for T, Initial residual = 0.00124957, Final residual = 3.89577e-07, No Iterations 1
Time = 29.6

DILUPBiCGStab:  Solving for T, Initial residual = 0.00124463, Final residual = 3.88858e-07, No Iterations 1
Time = 29.7

DILUPBiCGStab:  Solving for T, Initial residual = 0.00123966, Final residual = 3.88106e-07, No Iterations 1
Time = 29.8

DILUPBiCGStab:  Solving for T, Initial residual = 0.00123466, Final residual = 3.87321e-07, No Iterations 1
Time = 29.9

DILUPBiCGStab:  Solving for T, Initial residual = 0.00122963, Final residual = 3.86503e-07, No Iterations 1
Time = 30

DILUPBiCGStab:  Solving for T, Initial residual = 0.00122457, Final residual = 3.85655e-07, No Iterations 1
Time = 30.1

DILUPBiCGStab:  Solving for T, Initial residual = 0.00121946, Final residual = 3.84772e-07, No Iterations 1
Time = 30.2

DILUPBiCGStab:  Solving for T, Initial residual = 0.00121432, Final residual = 3.83855e-07, No Iterations 1
Time = 30.3

DILUPBiCGStab:  Solving for T, Initial residual = 0.00120912, Final residual = 3.82906e-07, No Iterations 1
Time = 30.4

DILUPBiCGStab:  Solving for T, Initial residual = 0.00120389, Final residual = 3.81924e-07, No Iterations 1
Time = 30.5

DILUPBiCGStab:  Solving for T, Initial residual = 0.00119863, Final residual = 3.80907e-07, No Iterations 1
Time = 30.6

DILUPBiCGStab:  Solving for T, Initial residual = 0.00119333, Final residual = 3.79859e-07, No Iterations 1
Time = 30.7

DILUPBiCGStab:  Solving for T, Initial residual = 0.00118801, Final residual = 3.78779e-07, No Iterations 1
Time = 30.8

DILUPBiCGStab:  Solving for T, Initial residual = 0.00118266, Final residual = 3.7767e-07, No Iterations 1
Time = 30.9

DILUPBiCGStab:  Solving for T, Initial residual = 0.00117728, Final residual = 3.76541e-07, No Iterations 1
Time = 31

DILUPBiCGStab:  Solving for T, Initial residual = 0.00117188, Final residual = 3.75384e-07, No Iterations 1
Time = 31.1

DILUPBiCGStab:  Solving for T, Initial residual = 0.00116644, Final residual = 3.74204e-07, No Iterations 1
Time = 31.2

DILUPBiCGStab:  Solving for T, Initial residual = 0.00116099, Final residual = 3.73001e-07, No Iterations 1
Time = 31.3

DILUPBiCGStab:  Solving for T, Initial residual = 0.0011555, Final residual = 3.71772e-07, No Iterations 1
Time = 31.4

DILUPBiCGStab:  Solving for T, Initial residual = 0.00115, Final residual = 3.70521e-07, No Iterations 1
Time = 31.5

DILUPBiCGStab:  Solving for T, Initial residual = 0.00114447, Final residual = 3.69247e-07, No Iterations 1
Time = 31.6

DILUPBiCGStab:  Solving for T, Initial residual = 0.00113891, Final residual = 3.67948e-07, No Iterations 1
Time = 31.7

DILUPBiCGStab:  Solving for T, Initial residual = 0.00113333, Final residual = 3.66623e-07, No Iterations 1
Time = 31.8

DILUPBiCGStab:  Solving for T, Initial residual = 0.00112772, Final residual = 3.65278e-07, No Iterations 1
Time = 31.9

DILUPBiCGStab:  Solving for T, Initial residual = 0.00112209, Final residual = 3.63911e-07, No Iterations 1
Time = 32

DILUPBiCGStab:  Solving for T, Initial residual = 0.00111644, Final residual = 3.6252e-07, No Iterations 1
Time = 32.1

DILUPBiCGStab:  Solving for T, Initial residual = 0.00111076, Final residual = 3.61105e-07, No Iterations 1
Time = 32.2

DILUPBiCGStab:  Solving for T, Initial residual = 0.00110506, Final residual = 3.59669e-07, No Iterations 1
Time = 32.3

DILUPBiCGStab:  Solving for T, Initial residual = 0.00109934, Final residual = 3.58211e-07, No Iterations 1
Time = 32.4

DILUPBiCGStab:  Solving for T, Initial residual = 0.0010936, Final residual = 3.56733e-07, No Iterations 1
Time = 32.5

DILUPBiCGStab:  Solving for T, Initial residual = 0.00108783, Final residual = 3.55237e-07, No Iterations 1
Time = 32.6

DILUPBiCGStab:  Solving for T, Initial residual = 0.00108204, Final residual = 3.53721e-07, No Iterations 1
Time = 32.7

DILUPBiCGStab:  Solving for T, Initial residual = 0.00107623, Final residual = 3.52188e-07, No Iterations 1
Time = 32.8

DILUPBiCGStab:  Solving for T, Initial residual = 0.0010704, Final residual = 3.50635e-07, No Iterations 1
Time = 32.9

DILUPBiCGStab:  Solving for T, Initial residual = 0.00106455, Final residual = 3.49065e-07, No Iterations 1
Time = 33

DILUPBiCGStab:  Solving for T, Initial residual = 0.00105868, Final residual = 3.47479e-07, No Iterations 1
Time = 33.1

DILUPBiCGStab:  Solving for T, Initial residual = 0.0010528, Final residual = 3.45879e-07, No Iterations 1
Time = 33.2

DILUPBiCGStab:  Solving for T, Initial residual = 0.0010469, Final residual = 3.44264e-07, No Iterations 1
Time = 33.3

DILUPBiCGStab:  Solving for T, Initial residual = 0.00104098, Final residual = 3.42633e-07, No Iterations 1
Time = 33.4

DILUPBiCGStab:  Solving for T, Initial residual = 0.00103504, Final residual = 3.40988e-07, No Iterations 1
Time = 33.5

DILUPBiCGStab:  Solving for T, Initial residual = 0.00102908, Final residual = 3.39326e-07, No Iterations 1
Time = 33.6

DILUPBiCGStab:  Solving for T, Initial residual = 0.00102311, Final residual = 3.37648e-07, No Iterations 1
Time = 33.7

DILUPBiCGStab:  Solving for T, Initial residual = 0.00101713, Final residual = 3.35956e-07, No Iterations 1
Time = 33.8

DILUPBiCGStab:  Solving for T, Initial residual = 0.00101112, Final residual = 3.34249e-07, No Iterations 1
Time = 33.9

DILUPBiCGStab:  Solving for T, Initial residual = 0.00100511, Final residual = 3.32528e-07, No Iterations 1
Time = 34

DILUPBiCGStab:  Solving for T, Initial residual = 0.00099907, Final residual = 3.30791e-07, No Iterations 1
Time = 34.1

DILUPBiCGStab:  Solving for T, Initial residual = 0.000993014, Final residual = 3.29038e-07, No Iterations 1
Time = 34.2

DILUPBiCGStab:  Solving for T, Initial residual = 0.000986938, Final residual = 3.27269e-07, No Iterations 1
Time = 34.3

DILUPBiCGStab:  Solving for T, Initial residual = 0.000980843, Final residual = 3.25487e-07, No Iterations 1
Time = 34.4

DILUPBiCGStab:  Solving for T, Initial residual = 0.000974729, Final residual = 3.2369e-07, No Iterations 1
Time = 34.5

DILUPBiCGStab:  Solving for T, Initial residual = 0.000968597, Final residual = 3.21879e-07, No Iterations 1
Time = 34.6

DILUPBiCGStab:  Solving for T, Initial residual = 0.000962451, Final residual = 3.20055e-07, No Iterations 1
Time = 34.7

DILUPBiCGStab:  Solving for T, Initial residual = 0.000956293, Final residual = 3.18222e-07, No Iterations 1
Time = 34.8

DILUPBiCGStab:  Solving for T, Initial residual = 0.000950125, Final residual = 3.1638e-07, No Iterations 1
Time = 34.9

DILUPBiCGStab:  Solving for T, Initial residual = 0.000943947, Final residual = 3.14529e-07, No Iterations 1
Time = 35

DILUPBiCGStab:  Solving for T, Initial residual = 0.000937761, Final residual = 3.12671e-07, No Iterations 1
Time = 35.1

DILUPBiCGStab:  Solving for T, Initial residual = 0.000931568, Final residual = 3.10804e-07, No Iterations 1
Time = 35.2

DILUPBiCGStab:  Solving for T, Initial residual = 0.000925371, Final residual = 3.0893e-07, No Iterations 1
Time = 35.3

DILUPBiCGStab:  Solving for T, Initial residual = 0.00091917, Final residual = 3.07049e-07, No Iterations 1
Time = 35.4

DILUPBiCGStab:  Solving for T, Initial residual = 0.000912966, Final residual = 3.05162e-07, No Iterations 1
Time = 35.5

DILUPBiCGStab:  Solving for T, Initial residual = 0.00090676, Final residual = 3.03271e-07, No Iterations 1
Time = 35.6

DILUPBiCGStab:  Solving for T, Initial residual = 0.000900554, Final residual = 3.01375e-07, No Iterations 1
Time = 35.7

DILUPBiCGStab:  Solving for T, Initial residual = 0.000894348, Final residual = 2.99475e-07, No Iterations 1
Time = 35.8

DILUPBiCGStab:  Solving for T, Initial residual = 0.000888141, Final residual = 2.9757e-07, No Iterations 1
Time = 35.9

DILUPBiCGStab:  Solving for T, Initial residual = 0.000881936, Final residual = 2.95659e-07, No Iterations 1
Time = 36

DILUPBiCGStab:  Solving for T, Initial residual = 0.000875732, Final residual = 2.93745e-07, No Iterations 1
Time = 36.1

DILUPBiCGStab:  Solving for T, Initial residual = 0.000869529, Final residual = 2.91828e-07, No Iterations 1
Time = 36.2

DILUPBiCGStab:  Solving for T, Initial residual = 0.000863329, Final residual = 2.89907e-07, No Iterations 1
Time = 36.3

DILUPBiCGStab:  Solving for T, Initial residual = 0.000857133, Final residual = 2.87984e-07, No Iterations 1
Time = 36.4

DILUPBiCGStab:  Solving for T, Initial residual = 0.000850943, Final residual = 2.86059e-07, No Iterations 1
Time = 36.5

DILUPBiCGStab:  Solving for T, Initial residual = 0.000844759, Final residual = 2.84133e-07, No Iterations 1
Time = 36.6

DILUPBiCGStab:  Solving for T, Initial residual = 0.00083858, Final residual = 2.82204e-07, No Iterations 1
Time = 36.7

DILUPBiCGStab:  Solving for T, Initial residual = 0.000832407, Final residual = 2.80273e-07, No Iterations 1
Time = 36.8

DILUPBiCGStab:  Solving for T, Initial residual = 0.00082624, Final residual = 2.7834e-07, No Iterations 1
Time = 36.9

DILUPBiCGStab:  Solving for T, Initial residual = 0.00082008, Final residual = 2.76406e-07, No Iterations 1
Time = 37

DILUPBiCGStab:  Solving for T, Initial residual = 0.000813927, Final residual = 2.74471e-07, No Iterations 1
Time = 37.1

DILUPBiCGStab:  Solving for T, Initial residual = 0.000807782, Final residual = 2.72535e-07, No Iterations 1
Time = 37.2

DILUPBiCGStab:  Solving for T, Initial residual = 0.000801646, Final residual = 2.706e-07, No Iterations 1
Time = 37.3

DILUPBiCGStab:  Solving for T, Initial residual = 0.00079552, Final residual = 2.68664e-07, No Iterations 1
Time = 37.4

DILUPBiCGStab:  Solving for T, Initial residual = 0.000789406, Final residual = 2.66729e-07, No Iterations 1
Time = 37.5

DILUPBiCGStab:  Solving for T, Initial residual = 0.000783304, Final residual = 2.64796e-07, No Iterations 1
Time = 37.6

DILUPBiCGStab:  Solving for T, Initial residual = 0.000777213, Final residual = 2.62864e-07, No Iterations 1
Time = 37.7

DILUPBiCGStab:  Solving for T, Initial residual = 0.000771134, Final residual = 2.60933e-07, No Iterations 1
Time = 37.8

DILUPBiCGStab:  Solving for T, Initial residual = 0.000765067, Final residual = 2.59004e-07, No Iterations 1
Time = 37.9

DILUPBiCGStab:  Solving for T, Initial residual = 0.000759013, Final residual = 2.57076e-07, No Iterations 1
Time = 38

DILUPBiCGStab:  Solving for T, Initial residual = 0.000752972, Final residual = 2.55151e-07, No Iterations 1
Time = 38.1

DILUPBiCGStab:  Solving for T, Initial residual = 0.000746946, Final residual = 2.53227e-07, No Iterations 1
Time = 38.2

DILUPBiCGStab:  Solving for T, Initial residual = 0.000740935, Final residual = 2.51307e-07, No Iterations 1
Time = 38.3

DILUPBiCGStab:  Solving for T, Initial residual = 0.00073494, Final residual = 2.49389e-07, No Iterations 1
Time = 38.4

DILUPBiCGStab:  Solving for T, Initial residual = 0.000728961, Final residual = 2.47474e-07, No Iterations 1
Time = 38.5

DILUPBiCGStab:  Solving for T, Initial residual = 0.000722999, Final residual = 2.45562e-07, No Iterations 1
Time = 38.6

DILUPBiCGStab:  Solving for T, Initial residual = 0.000717055, Final residual = 2.43654e-07, No Iterations 1
Time = 38.7

DILUPBiCGStab:  Solving for T, Initial residual = 0.000711127, Final residual = 2.4175e-07, No Iterations 1
Time = 38.8

DILUPBiCGStab:  Solving for T, Initial residual = 0.000705216, Final residual = 2.39849e-07, No Iterations 1
Time = 38.9

DILUPBiCGStab:  Solving for T, Initial residual = 0.000699323, Final residual = 2.37952e-07, No Iterations 1
Time = 39

DILUPBiCGStab:  Solving for T, Initial residual = 0.000693449, Final residual = 2.36059e-07, No Iterations 1
Time = 39.1

DILUPBiCGStab:  Solving for T, Initial residual = 0.000687594, Final residual = 2.34172e-07, No Iterations 1
Time = 39.2

DILUPBiCGStab:  Solving for T, Initial residual = 0.00068176, Final residual = 2.3229e-07, No Iterations 1
Time = 39.3

DILUPBiCGStab:  Solving for T, Initial residual = 0.000675947, Final residual = 2.30413e-07, No Iterations 1
Time = 39.4

DILUPBiCGStab:  Solving for T, Initial residual = 0.000670154, Final residual = 2.28541e-07, No Iterations 1
Time = 39.5

DILUPBiCGStab:  Solving for T, Initial residual = 0.000664384, Final residual = 2.26675e-07, No Iterations 1
Time = 39.6

DILUPBiCGStab:  Solving for T, Initial residual = 0.000658635, Final residual = 2.24814e-07, No Iterations 1
Time = 39.7

DILUPBiCGStab:  Solving for T, Initial residual = 0.000652907, Final residual = 2.22959e-07, No Iterations 1
Time = 39.8

DILUPBiCGStab:  Solving for T, Initial residual = 0.000647202, Final residual = 2.2111e-07, No Iterations 1
Time = 39.9

DILUPBiCGStab:  Solving for T, Initial residual = 0.000641518, Final residual = 2.19266e-07, No Iterations 1
Time = 40

DILUPBiCGStab:  Solving for T, Initial residual = 0.000635859, Final residual = 2.1743e-07, No Iterations 1
Time = 40.1

DILUPBiCGStab:  Solving for T, Initial residual = 0.000630223, Final residual = 2.15599e-07, No Iterations 1
Time = 40.2

DILUPBiCGStab:  Solving for T, Initial residual = 0.00062461, Final residual = 2.13776e-07, No Iterations 1
Time = 40.3

DILUPBiCGStab:  Solving for T, Initial residual = 0.000619021, Final residual = 2.1196e-07, No Iterations 1
Time = 40.4

DILUPBiCGStab:  Solving for T, Initial residual = 0.000613458, Final residual = 2.1015e-07, No Iterations 1
Time = 40.5

DILUPBiCGStab:  Solving for T, Initial residual = 0.000607919, Final residual = 2.08348e-07, No Iterations 1
Time = 40.6

DILUPBiCGStab:  Solving for T, Initial residual = 0.000602404, Final residual = 2.06552e-07, No Iterations 1
Time = 40.7

DILUPBiCGStab:  Solving for T, Initial residual = 0.000596914, Final residual = 2.04762e-07, No Iterations 1
Time = 40.8

DILUPBiCGStab:  Solving for T, Initial residual = 0.00059145, Final residual = 2.0298e-07, No Iterations 1
Time = 40.9

DILUPBiCGStab:  Solving for T, Initial residual = 0.000586012, Final residual = 2.01206e-07, No Iterations 1
Time = 41

DILUPBiCGStab:  Solving for T, Initial residual = 0.000580601, Final residual = 1.99439e-07, No Iterations 1
Time = 41.1

DILUPBiCGStab:  Solving for T, Initial residual = 0.000575218, Final residual = 1.9768e-07, No Iterations 1
Time = 41.2

DILUPBiCGStab:  Solving for T, Initial residual = 0.000569862, Final residual = 1.9593e-07, No Iterations 1
Time = 41.3

DILUPBiCGStab:  Solving for T, Initial residual = 0.000564534, Final residual = 1.94187e-07, No Iterations 1
Time = 41.4

DILUPBiCGStab:  Solving for T, Initial residual = 0.000559233, Final residual = 1.92452e-07, No Iterations 1
Time = 41.5

DILUPBiCGStab:  Solving for T, Initial residual = 0.000553959, Final residual = 1.90725e-07, No Iterations 1
Time = 41.6

DILUPBiCGStab:  Solving for T, Initial residual = 0.000548712, Final residual = 1.89006e-07, No Iterations 1
Time = 41.7

DILUPBiCGStab:  Solving for T, Initial residual = 0.000543494, Final residual = 1.87296e-07, No Iterations 1
Time = 41.8

DILUPBiCGStab:  Solving for T, Initial residual = 0.000538303, Final residual = 1.85593e-07, No Iterations 1
Time = 41.9

DILUPBiCGStab:  Solving for T, Initial residual = 0.000533142, Final residual = 1.839e-07, No Iterations 1
Time = 42

DILUPBiCGStab:  Solving for T, Initial residual = 0.000528011, Final residual = 1.82215e-07, No Iterations 1
Time = 42.1

DILUPBiCGStab:  Solving for T, Initial residual = 0.000522909, Final residual = 1.80539e-07, No Iterations 1
Time = 42.2

DILUPBiCGStab:  Solving for T, Initial residual = 0.000517837, Final residual = 1.78873e-07, No Iterations 1
Time = 42.3

DILUPBiCGStab:  Solving for T, Initial residual = 0.000512795, Final residual = 1.77215e-07, No Iterations 1
Time = 42.4

DILUPBiCGStab:  Solving for T, Initial residual = 0.000507783, Final residual = 1.75566e-07, No Iterations 1
Time = 42.5

DILUPBiCGStab:  Solving for T, Initial residual = 0.0005028, Final residual = 1.73927e-07, No Iterations 1
Time = 42.6

DILUPBiCGStab:  Solving for T, Initial residual = 0.000497847, Final residual = 1.72296e-07, No Iterations 1
Time = 42.7

DILUPBiCGStab:  Solving for T, Initial residual = 0.000492925, Final residual = 1.70674e-07, No Iterations 1
Time = 42.8

DILUPBiCGStab:  Solving for T, Initial residual = 0.000488033, Final residual = 1.69061e-07, No Iterations 1
Time = 42.9

DILUPBiCGStab:  Solving for T, Initial residual = 0.000483172, Final residual = 1.67458e-07, No Iterations 1
Time = 43

DILUPBiCGStab:  Solving for T, Initial residual = 0.000478342, Final residual = 1.65865e-07, No Iterations 1
Time = 43.1

DILUPBiCGStab:  Solving for T, Initial residual = 0.000473543, Final residual = 1.64281e-07, No Iterations 1
Time = 43.2

DILUPBiCGStab:  Solving for T, Initial residual = 0.000468777, Final residual = 1.62706e-07, No Iterations 1
Time = 43.3

DILUPBiCGStab:  Solving for T, Initial residual = 0.000464041, Final residual = 1.61142e-07, No Iterations 1
Time = 43.4

DILUPBiCGStab:  Solving for T, Initial residual = 0.000459338, Final residual = 1.59587e-07, No Iterations 1
Time = 43.5

DILUPBiCGStab:  Solving for T, Initial residual = 0.000454665, Final residual = 1.58042e-07, No Iterations 1
Time = 43.6

DILUPBiCGStab:  Solving for T, Initial residual = 0.000450023, Final residual = 1.56506e-07, No Iterations 1
Time = 43.7

DILUPBiCGStab:  Solving for T, Initial residual = 0.000445413, Final residual = 1.5498e-07, No Iterations 1
Time = 43.8

DILUPBiCGStab:  Solving for T, Initial residual = 0.000440835, Final residual = 1.53463e-07, No Iterations 1
Time = 43.9

DILUPBiCGStab:  Solving for T, Initial residual = 0.000436288, Final residual = 1.51957e-07, No Iterations 1
Time = 44

DILUPBiCGStab:  Solving for T, Initial residual = 0.000431774, Final residual = 1.5046e-07, No Iterations 1
Time = 44.1

DILUPBiCGStab:  Solving for T, Initial residual = 0.000427292, Final residual = 1.48973e-07, No Iterations 1
Time = 44.2

DILUPBiCGStab:  Solving for T, Initial residual = 0.000422843, Final residual = 1.47496e-07, No Iterations 1
Time = 44.3

DILUPBiCGStab:  Solving for T, Initial residual = 0.000418426, Final residual = 1.46029e-07, No Iterations 1
Time = 44.4

DILUPBiCGStab:  Solving for T, Initial residual = 0.000414041, Final residual = 1.44573e-07, No Iterations 1
Time = 44.5

DILUPBiCGStab:  Solving for T, Initial residual = 0.000409689, Final residual = 1.43126e-07, No Iterations 1
Time = 44.6

DILUPBiCGStab:  Solving for T, Initial residual = 0.000405369, Final residual = 1.4169e-07, No Iterations 1
Time = 44.7

DILUPBiCGStab:  Solving for T, Initial residual = 0.000401081, Final residual = 1.40263e-07, No Iterations 1
Time = 44.8

DILUPBiCGStab:  Solving for T, Initial residual = 0.000396825, Final residual = 1.38847e-07, No Iterations 1
Time = 44.9

DILUPBiCGStab:  Solving for T, Initial residual = 0.000392602, Final residual = 1.3744e-07, No Iterations 1
Time = 45

DILUPBiCGStab:  Solving for T, Initial residual = 0.000388411, Final residual = 1.36044e-07, No Iterations 1
Time = 45.1

DILUPBiCGStab:  Solving for T, Initial residual = 0.000384253, Final residual = 1.34659e-07, No Iterations 1
Time = 45.2

DILUPBiCGStab:  Solving for T, Initial residual = 0.000380128, Final residual = 1.33283e-07, No Iterations 1
Time = 45.3

DILUPBiCGStab:  Solving for T, Initial residual = 0.000376036, Final residual = 1.31917e-07, No Iterations 1
Time = 45.4

DILUPBiCGStab:  Solving for T, Initial residual = 0.000371975, Final residual = 1.30562e-07, No Iterations 1
Time = 45.5

DILUPBiCGStab:  Solving for T, Initial residual = 0.000367948, Final residual = 1.29217e-07, No Iterations 1
Time = 45.6

DILUPBiCGStab:  Solving for T, Initial residual = 0.000363952, Final residual = 1.27882e-07, No Iterations 1
Time = 45.7

DILUPBiCGStab:  Solving for T, Initial residual = 0.000359989, Final residual = 1.26557e-07, No Iterations 1
Time = 45.8

DILUPBiCGStab:  Solving for T, Initial residual = 0.000356057, Final residual = 1.25242e-07, No Iterations 1
Time = 45.9

DILUPBiCGStab:  Solving for T, Initial residual = 0.000352158, Final residual = 1.23937e-07, No Iterations 1
Time = 46

DILUPBiCGStab:  Solving for T, Initial residual = 0.000348291, Final residual = 1.22642e-07, No Iterations 1
Time = 46.1

DILUPBiCGStab:  Solving for T, Initial residual = 0.000344456, Final residual = 1.21358e-07, No Iterations 1
Time = 46.2

DILUPBiCGStab:  Solving for T, Initial residual = 0.000340653, Final residual = 1.20083e-07, No Iterations 1
Time = 46.3

DILUPBiCGStab:  Solving for T, Initial residual = 0.000336882, Final residual = 1.18818e-07, No Iterations 1
Time = 46.4

DILUPBiCGStab:  Solving for T, Initial residual = 0.000333144, Final residual = 1.17564e-07, No Iterations 1
Time = 46.5

DILUPBiCGStab:  Solving for T, Initial residual = 0.000329437, Final residual = 1.16319e-07, No Iterations 1
Time = 46.6

DILUPBiCGStab:  Solving for T, Initial residual = 0.000325762, Final residual = 1.15085e-07, No Iterations 1
Time = 46.7

DILUPBiCGStab:  Solving for T, Initial residual = 0.000322118, Final residual = 1.1386e-07, No Iterations 1
Time = 46.8

DILUPBiCGStab:  Solving for T, Initial residual = 0.000318506, Final residual = 1.12646e-07, No Iterations 1
Time = 46.9

DILUPBiCGStab:  Solving for T, Initial residual = 0.000314925, Final residual = 1.11441e-07, No Iterations 1
Time = 47

DILUPBiCGStab:  Solving for T, Initial residual = 0.000311376, Final residual = 1.10246e-07, No Iterations 1
Time = 47.1

DILUPBiCGStab:  Solving for T, Initial residual = 0.000307857, Final residual = 1.09061e-07, No Iterations 1
Time = 47.2

DILUPBiCGStab:  Solving for T, Initial residual = 0.00030437, Final residual = 1.07885e-07, No Iterations 1
Time = 47.3

DILUPBiCGStab:  Solving for T, Initial residual = 0.000300914, Final residual = 1.0672e-07, No Iterations 1
Time = 47.4

DILUPBiCGStab:  Solving for T, Initial residual = 0.000297489, Final residual = 1.05564e-07, No Iterations 1
Time = 47.5

DILUPBiCGStab:  Solving for T, Initial residual = 0.000294095, Final residual = 1.04418e-07, No Iterations 1
Time = 47.6

DILUPBiCGStab:  Solving for T, Initial residual = 0.000290732, Final residual = 1.03282e-07, No Iterations 1
Time = 47.7

DILUPBiCGStab:  Solving for T, Initial residual = 0.0002874, Final residual = 1.02156e-07, No Iterations 1
Time = 47.8

DILUPBiCGStab:  Solving for T, Initial residual = 0.000284098, Final residual = 1.01039e-07, No Iterations 1
Time = 47.9

DILUPBiCGStab:  Solving for T, Initial residual = 0.000280826, Final residual = 9.99319e-08, No Iterations 1
Time = 48

DILUPBiCGStab:  Solving for T, Initial residual = 0.000277584, Final residual = 9.88344e-08, No Iterations 1
Time = 48.1

DILUPBiCGStab:  Solving for T, Initial residual = 0.000274372, Final residual = 9.77465e-08, No Iterations 1
Time = 48.2

DILUPBiCGStab:  Solving for T, Initial residual = 0.000271191, Final residual = 9.6668e-08, No Iterations 1
Time = 48.3

DILUPBiCGStab:  Solving for T, Initial residual = 0.000268039, Final residual = 9.55991e-08, No Iterations 1
Time = 48.4

DILUPBiCGStab:  Solving for T, Initial residual = 0.000264917, Final residual = 9.45396e-08, No Iterations 1
Time = 48.5

DILUPBiCGStab:  Solving for T, Initial residual = 0.000261824, Final residual = 9.34895e-08, No Iterations 1
Time = 48.6

DILUPBiCGStab:  Solving for T, Initial residual = 0.000258761, Final residual = 9.24488e-08, No Iterations 1
Time = 48.7

DILUPBiCGStab:  Solving for T, Initial residual = 0.000255728, Final residual = 9.14175e-08, No Iterations 1
Time = 48.8

DILUPBiCGStab:  Solving for T, Initial residual = 0.000252723, Final residual = 9.03955e-08, No Iterations 1
Time = 48.9

DILUPBiCGStab:  Solving for T, Initial residual = 0.000249748, Final residual = 8.93827e-08, No Iterations 1
Time = 49

DILUPBiCGStab:  Solving for T, Initial residual = 0.000246801, Final residual = 8.8379e-08, No Iterations 1
Time = 49.1

DILUPBiCGStab:  Solving for T, Initial residual = 0.000243882, Final residual = 8.73845e-08, No Iterations 1
Time = 49.2

DILUPBiCGStab:  Solving for T, Initial residual = 0.000240992, Final residual = 8.63991e-08, No Iterations 1
Time = 49.3

DILUPBiCGStab:  Solving for T, Initial residual = 0.000238131, Final residual = 8.54227e-08, No Iterations 1
Time = 49.4

DILUPBiCGStab:  Solving for T, Initial residual = 0.000235297, Final residual = 8.44554e-08, No Iterations 1
Time = 49.5

DILUPBiCGStab:  Solving for T, Initial residual = 0.000232492, Final residual = 8.34972e-08, No Iterations 1
Time = 49.6

DILUPBiCGStab:  Solving for T, Initial residual = 0.000229714, Final residual = 8.2548e-08, No Iterations 1
Time = 49.7

DILUPBiCGStab:  Solving for T, Initial residual = 0.000226965, Final residual = 8.16077e-08, No Iterations 1
Time = 49.8

DILUPBiCGStab:  Solving for T, Initial residual = 0.000224243, Final residual = 8.06763e-08, No Iterations 1
Time = 49.9

DILUPBiCGStab:  Solving for T, Initial residual = 0.000221548, Final residual = 7.97537e-08, No Iterations 1
Time = 50

DILUPBiCGStab:  Solving for T, Initial residual = 0.000218881, Final residual = 7.88398e-08, No Iterations 1
Time = 50.1

DILUPBiCGStab:  Solving for T, Initial residual = 0.00021624, Final residual = 7.79346e-08, No Iterations 1
Time = 50.2

DILUPBiCGStab:  Solving for T, Initial residual = 0.000213627, Final residual = 7.70381e-08, No Iterations 1
Time = 50.3

DILUPBiCGStab:  Solving for T, Initial residual = 0.00021104, Final residual = 7.61503e-08, No Iterations 1
Time = 50.4

DILUPBiCGStab:  Solving for T, Initial residual = 0.000208479, Final residual = 7.5271e-08, No Iterations 1
Time = 50.5

DILUPBiCGStab:  Solving for T, Initial residual = 0.000205945, Final residual = 7.44003e-08, No Iterations 1
Time = 50.6

DILUPBiCGStab:  Solving for T, Initial residual = 0.000203437, Final residual = 7.3538e-08, No Iterations 1
Time = 50.7

DILUPBiCGStab:  Solving for T, Initial residual = 0.000200955, Final residual = 7.26841e-08, No Iterations 1
Time = 50.8

DILUPBiCGStab:  Solving for T, Initial residual = 0.000198499, Final residual = 7.18385e-08, No Iterations 1
Time = 50.9

DILUPBiCGStab:  Solving for T, Initial residual = 0.000196068, Final residual = 7.10012e-08, No Iterations 1
Time = 51

DILUPBiCGStab:  Solving for T, Initial residual = 0.000193663, Final residual = 7.01721e-08, No Iterations 1
Time = 51.1

DILUPBiCGStab:  Solving for T, Initial residual = 0.000191283, Final residual = 6.93513e-08, No Iterations 1
Time = 51.2

DILUPBiCGStab:  Solving for T, Initial residual = 0.000188928, Final residual = 6.85386e-08, No Iterations 1
Time = 51.3

DILUPBiCGStab:  Solving for T, Initial residual = 0.000186598, Final residual = 6.77341e-08, No Iterations 1
Time = 51.4

DILUPBiCGStab:  Solving for T, Initial residual = 0.000184293, Final residual = 6.69376e-08, No Iterations 1
Time = 51.5

DILUPBiCGStab:  Solving for T, Initial residual = 0.000182012, Final residual = 6.6149e-08, No Iterations 1
Time = 51.6

DILUPBiCGStab:  Solving for T, Initial residual = 0.000179756, Final residual = 6.53683e-08, No Iterations 1
Time = 51.7

DILUPBiCGStab:  Solving for T, Initial residual = 0.000177524, Final residual = 6.45955e-08, No Iterations 1
Time = 51.8

DILUPBiCGStab:  Solving for T, Initial residual = 0.000175315, Final residual = 6.38305e-08, No Iterations 1
Time = 51.9

DILUPBiCGStab:  Solving for T, Initial residual = 0.000173131, Final residual = 6.30732e-08, No Iterations 1
Time = 52

DILUPBiCGStab:  Solving for T, Initial residual = 0.00017097, Final residual = 6.23236e-08, No Iterations 1
Time = 52.1

DILUPBiCGStab:  Solving for T, Initial residual = 0.000168833, Final residual = 6.15816e-08, No Iterations 1
Time = 52.2

DILUPBiCGStab:  Solving for T, Initial residual = 0.000166718, Final residual = 6.08473e-08, No Iterations 1
Time = 52.3

DILUPBiCGStab:  Solving for T, Initial residual = 0.000164627, Final residual = 6.01204e-08, No Iterations 1
Time = 52.4

DILUPBiCGStab:  Solving for T, Initial residual = 0.000162559, Final residual = 5.94011e-08, No Iterations 1
Time = 52.5

DILUPBiCGStab:  Solving for T, Initial residual = 0.000160514, Final residual = 5.86892e-08, No Iterations 1
Time = 52.6

DILUPBiCGStab:  Solving for T, Initial residual = 0.000158491, Final residual = 5.79846e-08, No Iterations 1
Time = 52.7

DILUPBiCGStab:  Solving for T, Initial residual = 0.00015649, Final residual = 5.72874e-08, No Iterations 1
Time = 52.8

DILUPBiCGStab:  Solving for T, Initial residual = 0.000154512, Final residual = 5.65974e-08, No Iterations 1
Time = 52.9

DILUPBiCGStab:  Solving for T, Initial residual = 0.000152555, Final residual = 5.59146e-08, No Iterations 1
Time = 53

DILUPBiCGStab:  Solving for T, Initial residual = 0.00015062, Final residual = 5.5239e-08, No Iterations 1
Time = 53.1

DILUPBiCGStab:  Solving for T, Initial residual = 0.000148707, Final residual = 5.45705e-08, No Iterations 1
Time = 53.2

DILUPBiCGStab:  Solving for T, Initial residual = 0.000146815, Final residual = 5.39091e-08, No Iterations 1
Time = 53.3

DILUPBiCGStab:  Solving for T, Initial residual = 0.000144945, Final residual = 5.32547e-08, No Iterations 1
Time = 53.4

DILUPBiCGStab:  Solving for T, Initial residual = 0.000143096, Final residual = 5.26071e-08, No Iterations 1
Time = 53.5

DILUPBiCGStab:  Solving for T, Initial residual = 0.000141267, Final residual = 5.19665e-08, No Iterations 1
Time = 53.6

DILUPBiCGStab:  Solving for T, Initial residual = 0.000139459, Final residual = 5.13326e-08, No Iterations 1
Time = 53.7

DILUPBiCGStab:  Solving for T, Initial residual = 0.000137672, Final residual = 5.07055e-08, No Iterations 1
Time = 53.8

DILUPBiCGStab:  Solving for T, Initial residual = 0.000135905, Final residual = 5.00852e-08, No Iterations 1
Time = 53.9

DILUPBiCGStab:  Solving for T, Initial residual = 0.000134158, Final residual = 4.94715e-08, No Iterations 1
Time = 54

DILUPBiCGStab:  Solving for T, Initial residual = 0.000132431, Final residual = 4.88644e-08, No Iterations 1
Time = 54.1

DILUPBiCGStab:  Solving for T, Initial residual = 0.000130724, Final residual = 4.82639e-08, No Iterations 1
Time = 54.2

DILUPBiCGStab:  Solving for T, Initial residual = 0.000129036, Final residual = 4.76699e-08, No Iterations 1
Time = 54.3

DILUPBiCGStab:  Solving for T, Initial residual = 0.000127368, Final residual = 4.70823e-08, No Iterations 1
Time = 54.4

DILUPBiCGStab:  Solving for T, Initial residual = 0.000125719, Final residual = 4.65011e-08, No Iterations 1
Time = 54.5

DILUPBiCGStab:  Solving for T, Initial residual = 0.00012409, Final residual = 4.59263e-08, No Iterations 1
Time = 54.6

DILUPBiCGStab:  Solving for T, Initial residual = 0.000122479, Final residual = 4.53577e-08, No Iterations 1
Time = 54.7

DILUPBiCGStab:  Solving for T, Initial residual = 0.000120887, Final residual = 4.47954e-08, No Iterations 1
Time = 54.8

DILUPBiCGStab:  Solving for T, Initial residual = 0.000119313, Final residual = 4.42392e-08, No Iterations 1
Time = 54.9

DILUPBiCGStab:  Solving for T, Initial residual = 0.000117758, Final residual = 4.36892e-08, No Iterations 1
Time = 55

DILUPBiCGStab:  Solving for T, Initial residual = 0.000116221, Final residual = 4.31451e-08, No Iterations 1
Time = 55.1

DILUPBiCGStab:  Solving for T, Initial residual = 0.000114702, Final residual = 4.26072e-08, No Iterations 1
Time = 55.2

DILUPBiCGStab:  Solving for T, Initial residual = 0.000113201, Final residual = 4.20752e-08, No Iterations 1
Time = 55.3

DILUPBiCGStab:  Solving for T, Initial residual = 0.000111718, Final residual = 4.1549e-08, No Iterations 1
Time = 55.4

DILUPBiCGStab:  Solving for T, Initial residual = 0.000110252, Final residual = 4.10288e-08, No Iterations 1
Time = 55.5

DILUPBiCGStab:  Solving for T, Initial residual = 0.000108803, Final residual = 4.05144e-08, No Iterations 1
Time = 55.6

DILUPBiCGStab:  Solving for T, Initial residual = 0.000107372, Final residual = 4.00057e-08, No Iterations 1
Time = 55.7

DILUPBiCGStab:  Solving for T, Initial residual = 0.000105958, Final residual = 3.95027e-08, No Iterations 1
Time = 55.8

DILUPBiCGStab:  Solving for T, Initial residual = 0.000104561, Final residual = 3.90053e-08, No Iterations 1
Time = 55.9

DILUPBiCGStab:  Solving for T, Initial residual = 0.00010318, Final residual = 3.85136e-08, No Iterations 1
Time = 56

DILUPBiCGStab:  Solving for T, Initial residual = 0.000101816, Final residual = 3.80274e-08, No Iterations 1
Time = 56.1

DILUPBiCGStab:  Solving for T, Initial residual = 0.000100468, Final residual = 3.75468e-08, No Iterations 1
Time = 56.2

DILUPBiCGStab:  Solving for T, Initial residual = 9.91365e-05, Final residual = 3.70716e-08, No Iterations 1
Time = 56.3

DILUPBiCGStab:  Solving for T, Initial residual = 9.7821e-05, Final residual = 3.66018e-08, No Iterations 1
Time = 56.4

DILUPBiCGStab:  Solving for T, Initial residual = 9.65214e-05, Final residual = 3.61373e-08, No Iterations 1
Time = 56.5

DILUPBiCGStab:  Solving for T, Initial residual = 9.52375e-05, Final residual = 3.56782e-08, No Iterations 1
Time = 56.6

DILUPBiCGStab:  Solving for T, Initial residual = 9.39691e-05, Final residual = 3.52243e-08, No Iterations 1
Time = 56.7

DILUPBiCGStab:  Solving for T, Initial residual = 9.27161e-05, Final residual = 3.47756e-08, No Iterations 1
Time = 56.8

DILUPBiCGStab:  Solving for T, Initial residual = 9.14784e-05, Final residual = 3.4332e-08, No Iterations 1
Time = 56.9

DILUPBiCGStab:  Solving for T, Initial residual = 9.02558e-05, Final residual = 3.38936e-08, No Iterations 1
Time = 57

DILUPBiCGStab:  Solving for T, Initial residual = 8.9048e-05, Final residual = 3.34602e-08, No Iterations 1
Time = 57.1

DILUPBiCGStab:  Solving for T, Initial residual = 8.78551e-05, Final residual = 3.30317e-08, No Iterations 1
Time = 57.2

DILUPBiCGStab:  Solving for T, Initial residual = 8.66768e-05, Final residual = 3.26083e-08, No Iterations 1
Time = 57.3

DILUPBiCGStab:  Solving for T, Initial residual = 8.55129e-05, Final residual = 3.21898e-08, No Iterations 1
Time = 57.4

DILUPBiCGStab:  Solving for T, Initial residual = 8.43633e-05, Final residual = 3.17761e-08, No Iterations 1
Time = 57.5

DILUPBiCGStab:  Solving for T, Initial residual = 8.32279e-05, Final residual = 3.13672e-08, No Iterations 1
Time = 57.6

DILUPBiCGStab:  Solving for T, Initial residual = 8.21065e-05, Final residual = 3.09631e-08, No Iterations 1
Time = 57.7

DILUPBiCGStab:  Solving for T, Initial residual = 8.0999e-05, Final residual = 3.05637e-08, No Iterations 1
Time = 57.8

DILUPBiCGStab:  Solving for T, Initial residual = 7.99052e-05, Final residual = 3.0169e-08, No Iterations 1
Time = 57.9

DILUPBiCGStab:  Solving for T, Initial residual = 7.8825e-05, Final residual = 2.97789e-08, No Iterations 1
Time = 58

DILUPBiCGStab:  Solving for T, Initial residual = 7.77582e-05, Final residual = 2.93934e-08, No Iterations 1
Time = 58.1

DILUPBiCGStab:  Solving for T, Initial residual = 7.67047e-05, Final residual = 2.90125e-08, No Iterations 1
Time = 58.2

DILUPBiCGStab:  Solving for T, Initial residual = 7.56644e-05, Final residual = 2.8636e-08, No Iterations 1
Time = 58.3

DILUPBiCGStab:  Solving for T, Initial residual = 7.46371e-05, Final residual = 2.8264e-08, No Iterations 1
Time = 58.4

DILUPBiCGStab:  Solving for T, Initial residual = 7.36227e-05, Final residual = 2.78963e-08, No Iterations 1
Time = 58.5

DILUPBiCGStab:  Solving for T, Initial residual = 7.26209e-05, Final residual = 9.99196e-07, No Iterations 1
Time = 58.6

DILUPBiCGStab:  Solving for T, Initial residual = 7.16331e-05, Final residual = 9.8439e-07, No Iterations 1
Time = 58.7

DILUPBiCGStab:  Solving for T, Initial residual = 7.06591e-05, Final residual = 9.7009e-07, No Iterations 1
Time = 58.8

DILUPBiCGStab:  Solving for T, Initial residual = 6.96984e-05, Final residual = 9.56225e-07, No Iterations 1
Time = 58.9

DILUPBiCGStab:  Solving for T, Initial residual = 6.87506e-05, Final residual = 9.42728e-07, No Iterations 1
Time = 59

DILUPBiCGStab:  Solving for T, Initial residual = 6.78152e-05, Final residual = 9.29549e-07, No Iterations 1
Time = 59.1

DILUPBiCGStab:  Solving for T, Initial residual = 6.68919e-05, Final residual = 9.16653e-07, No Iterations 1
Time = 59.2

DILUPBiCGStab:  Solving for T, Initial residual = 6.59804e-05, Final residual = 9.04015e-07, No Iterations 1
Time = 59.3

DILUPBiCGStab:  Solving for T, Initial residual = 6.50806e-05, Final residual = 8.91611e-07, No Iterations 1
Time = 59.4

DILUPBiCGStab:  Solving for T, Initial residual = 6.41922e-05, Final residual = 8.79424e-07, No Iterations 1
Time = 59.5

DILUPBiCGStab:  Solving for T, Initial residual = 6.33151e-05, Final residual = 8.67441e-07, No Iterations 1
Time = 59.6

DILUPBiCGStab:  Solving for T, Initial residual = 6.2449e-05, Final residual = 8.5565e-07, No Iterations 1
Time = 59.7

DILUPBiCGStab:  Solving for T, Initial residual = 6.15939e-05, Final residual = 8.44041e-07, No Iterations 1
Time = 59.8

DILUPBiCGStab:  Solving for T, Initial residual = 6.07496e-05, Final residual = 8.32606e-07, No Iterations 1
Time = 59.9

DILUPBiCGStab:  Solving for T, Initial residual = 5.9916e-05, Final residual = 8.21339e-07, No Iterations 1
Time = 60

DILUPBiCGStab:  Solving for T, Initial residual = 5.9093e-05, Final residual = 8.10233e-07, No Iterations 1
Time = 60.1

DILUPBiCGStab:  Solving for T, Initial residual = 5.82804e-05, Final residual = 7.99283e-07, No Iterations 1
Time = 60.2

DILUPBiCGStab:  Solving for T, Initial residual = 5.74781e-05, Final residual = 7.88485e-07, No Iterations 1
Time = 60.3

DILUPBiCGStab:  Solving for T, Initial residual = 5.66861e-05, Final residual = 7.77834e-07, No Iterations 1
Time = 60.4

DILUPBiCGStab:  Solving for T, Initial residual = 5.59042e-05, Final residual = 7.67328e-07, No Iterations 1
Time = 60.5

DILUPBiCGStab:  Solving for T, Initial residual = 5.51322e-05, Final residual = 7.56963e-07, No Iterations 1
Time = 60.6

DILUPBiCGStab:  Solving for T, Initial residual = 5.43701e-05, Final residual = 7.46735e-07, No Iterations 1
Time = 60.7

DILUPBiCGStab:  Solving for T, Initial residual = 5.36178e-05, Final residual = 7.36643e-07, No Iterations 1
Time = 60.8

DILUPBiCGStab:  Solving for T, Initial residual = 5.28752e-05, Final residual = 7.26684e-07, No Iterations 1
Time = 60.9

DILUPBiCGStab:  Solving for T, Initial residual = 5.21421e-05, Final residual = 7.16855e-07, No Iterations 1
Time = 61

DILUPBiCGStab:  Solving for T, Initial residual = 5.14184e-05, Final residual = 7.07154e-07, No Iterations 1
Time = 61.1

DILUPBiCGStab:  Solving for T, Initial residual = 5.07041e-05, Final residual = 6.9758e-07, No Iterations 1
Time = 61.2

DILUPBiCGStab:  Solving for T, Initial residual = 4.99991e-05, Final residual = 6.88129e-07, No Iterations 1
Time = 61.3

DILUPBiCGStab:  Solving for T, Initial residual = 4.93031e-05, Final residual = 6.788e-07, No Iterations 1
Time = 61.4

DILUPBiCGStab:  Solving for T, Initial residual = 4.86162e-05, Final residual = 6.69592e-07, No Iterations 1
Time = 61.5

DILUPBiCGStab:  Solving for T, Initial residual = 4.79382e-05, Final residual = 6.60502e-07, No Iterations 1
Time = 61.6

DILUPBiCGStab:  Solving for T, Initial residual = 4.72691e-05, Final residual = 6.51529e-07, No Iterations 1
Time = 61.7

DILUPBiCGStab:  Solving for T, Initial residual = 4.66086e-05, Final residual = 6.42672e-07, No Iterations 1
Time = 61.8

DILUPBiCGStab:  Solving for T, Initial residual = 4.59568e-05, Final residual = 6.33928e-07, No Iterations 1
Time = 61.9

DILUPBiCGStab:  Solving for T, Initial residual = 4.53136e-05, Final residual = 6.25296e-07, No Iterations 1
Time = 62

DILUPBiCGStab:  Solving for T, Initial residual = 4.46787e-05, Final residual = 6.16774e-07, No Iterations 1
Time = 62.1

DILUPBiCGStab:  Solving for T, Initial residual = 4.40522e-05, Final residual = 6.08363e-07, No Iterations 1
Time = 62.2

DILUPBiCGStab:  Solving for T, Initial residual = 4.34339e-05, Final residual = 6.00058e-07, No Iterations 1
Time = 62.3

DILUPBiCGStab:  Solving for T, Initial residual = 4.28238e-05, Final residual = 5.91861e-07, No Iterations 1
Time = 62.4

DILUPBiCGStab:  Solving for T, Initial residual = 4.22217e-05, Final residual = 5.8377e-07, No Iterations 1
Time = 62.5

DILUPBiCGStab:  Solving for T, Initial residual = 4.16275e-05, Final residual = 5.75782e-07, No Iterations 1
Time = 62.6

DILUPBiCGStab:  Solving for T, Initial residual = 4.10412e-05, Final residual = 5.67896e-07, No Iterations 1
Time = 62.7

DILUPBiCGStab:  Solving for T, Initial residual = 4.04627e-05, Final residual = 5.60112e-07, No Iterations 1
Time = 62.8

DILUPBiCGStab:  Solving for T, Initial residual = 3.98919e-05, Final residual = 5.52429e-07, No Iterations 1
Time = 62.9

DILUPBiCGStab:  Solving for T, Initial residual = 3.93286e-05, Final residual = 5.44844e-07, No Iterations 1
Time = 63

DILUPBiCGStab:  Solving for T, Initial residual = 3.87728e-05, Final residual = 5.37358e-07, No Iterations 1
Time = 63.1

DILUPBiCGStab:  Solving for T, Initial residual = 3.82245e-05, Final residual = 5.29969e-07, No Iterations 1
Time = 63.2

DILUPBiCGStab:  Solving for T, Initial residual = 3.76834e-05, Final residual = 5.22676e-07, No Iterations 1
Time = 63.3

DILUPBiCGStab:  Solving for T, Initial residual = 3.71496e-05, Final residual = 5.15476e-07, No Iterations 1
Time = 63.4

DILUPBiCGStab:  Solving for T, Initial residual = 3.66229e-05, Final residual = 5.0837e-07, No Iterations 1
Time = 63.5

DILUPBiCGStab:  Solving for T, Initial residual = 3.61033e-05, Final residual = 5.01355e-07, No Iterations 1
Time = 63.6

DILUPBiCGStab:  Solving for T, Initial residual = 3.55907e-05, Final residual = 4.94431e-07, No Iterations 1
Time = 63.7

DILUPBiCGStab:  Solving for T, Initial residual = 3.50849e-05, Final residual = 4.87597e-07, No Iterations 1
Time = 63.8

DILUPBiCGStab:  Solving for T, Initial residual = 3.4586e-05, Final residual = 4.80851e-07, No Iterations 1
Time = 63.9

DILUPBiCGStab:  Solving for T, Initial residual = 3.40937e-05, Final residual = 4.74193e-07, No Iterations 1
Time = 64

DILUPBiCGStab:  Solving for T, Initial residual = 3.36081e-05, Final residual = 4.67623e-07, No Iterations 1
Time = 64.1

DILUPBiCGStab:  Solving for T, Initial residual = 3.3129e-05, Final residual = 4.61138e-07, No Iterations 1
Time = 64.2

DILUPBiCGStab:  Solving for T, Initial residual = 3.26564e-05, Final residual = 4.54737e-07, No Iterations 1
Time = 64.3

DILUPBiCGStab:  Solving for T, Initial residual = 3.21902e-05, Final residual = 4.4842e-07, No Iterations 1
Time = 64.4

DILUPBiCGStab:  Solving for T, Initial residual = 3.17303e-05, Final residual = 4.42185e-07, No Iterations 1
Time = 64.5

DILUPBiCGStab:  Solving for T, Initial residual = 3.12767e-05, Final residual = 4.36031e-07, No Iterations 1
Time = 64.6

DILUPBiCGStab:  Solving for T, Initial residual = 3.08291e-05, Final residual = 4.29958e-07, No Iterations 1
Time = 64.7

DILUPBiCGStab:  Solving for T, Initial residual = 3.03877e-05, Final residual = 4.23964e-07, No Iterations 1
Time = 64.8

DILUPBiCGStab:  Solving for T, Initial residual = 2.99522e-05, Final residual = 4.18049e-07, No Iterations 1
Time = 64.9

[...]
Time = 103.9

DILUPBiCGStab:  Solving for T, Initial residual = 9.87298e-07, Final residual = 9.87298e-07, No Iterations 0
Time = 104

DILUPBiCGStab:  Solving for T, Initial residual = 9.87298e-07, Final residual = 9.87298e-07, No Iterations 0
Time = 104.1

DILUPBiCGStab:  Solving for T, Initial residual = 9.87298e-07, Final residual = 9.87298e-07, No Iterations 0
Time = 104.2

DILUPBiCGStab:  Solving for T, Initial residual = 9.87298e-07, Final residual = 9.87298e-07, No Iterations 0
Time = 104.3

DILUPBiCGStab:  Solving for T, Initial residual = 9.87298e-07, Final residual = 9.87298e-07, No Iterations 0
Time = 104.4

DILUPBiCGStab:  Solving for T, Initial residual = 9.87298e-07, Final residual = 9.87298e-07, No Iterations 0
Time = 104.5

DILUPBiCGStab:  Solving for T, Initial residual = 9.87298e-07, Final residual = 9.87298e-07, No Iterations 0
Time = 104.6

DILUPBiCGStab:  Solving for T, Initial residual = 9.87298e-07, Final residual = 9.87298e-07, No Iterations 0
Time = 104.7

DILUPBiCGStab:  Solving for T, Initial residual = 9.87298e-07, Final residual = 9.87298e-07, No Iterations 0
Time = 104.8

DILUPBiCGStab:  Solving for T, Initial residual = 9.87298e-07, Final residual = 9.87298e-07, No Iterations 0
Time = 104.9

DILUPBiCGStab:  Solving for T, Initial residual = 9.87298e-07, Final residual = 9.87298e-07, No Iterations 0
Time = 105

DILUPBiCGStab:  Solving for T, Initial residual = 9.87298e-07, Final residual = 9.87298e-07, No Iterations 0
Time = 105.1

DILUPBiCGStab:  Solving for T, Initial residual = 9.87298e-07, Final residual = 9.87298e-07, No Iterations 0
Time = 105.2

DILUPBiCGStab:  Solving for T, Initial residual = 9.87298e-07, Final residual = 9.87298e-07, No Iterations 0
Time = 105.3

DILUPBiCGStab:  Solving for T, Initial residual = 9.87298e-07, Final residual = 9.87298e-07, No Iterations 0
Time = 105.4

DILUPBiCGStab:  Solving for T, Initial residual = 9.87298e-07, Final residual = 9.87298e-07, No Iterations 0
Time = 105.5

DILUPBiCGStab:  Solving for T, Initial residual = 9.87298e-07, Final residual = 9.87298e-07, No Iterations 0
Time = 105.6

DILUPBiCGStab:  Solving for T, Initial residual = 9.87298e-07, Final residual = 9.87298e-07, No Iterations 0
Time = 105.7

DILUPBiCGStab:  Solving for T, Initial residual = 9.87298e-07, Final residual = 9.87298e-07, No Iterations 0
Time = 105.8

DILUPBiCGStab:  Solving for T, Initial residual = 9.87298e-07, Final residual = 9.87298e-07, No Iterations 0
Time = 105.9

DILUPBiCGStab:  Solving for T, Initial residual = 9.87298e-07, Final residual = 9.87298e-07, No Iterations 0
Time = 106

DILUPBiCGStab:  Solving for T, Initial residual = 9.87298e-07, Final residual = 9.87298e-07, No Iterations 0
Time = 106.1

DILUPBiCGStab:  Solving for T, Initial residual = 9.87298e-07, Final residual = 9.87298e-07, No Iterations 0
Time = 106.2

DILUPBiCGStab:  Solving for T, Initial residual = 9.87298e-07, Final residual = 9.87298e-07, No Iterations 0
Time = 106.3

DILUPBiCGStab:  Solving for T, Initial residual = 9.87298e-07, Final residual = 9.87298e-07, No Iterations 0
Time = 106.4

DILUPBiCGStab:  Solving for T, Initial residual = 9.87298e-07, Final residual = 9.87298e-07, No Iterations 0
Time = 106.5

DILUPBiCGStab:  Solving for T, Initial residual = 9.87298e-07, Final residual = 9.87298e-07, No Iterations 0
Time = 106.6

DILUPBiCGStab:  Solving for T, Initial residual = 9.87298e-07, Final residual = 9.87298e-07, No Iterations 0
Time = 106.7

DILUPBiCGStab:  Solving for T, Initial residual = 9.87298e-07, Final residual = 9.87298e-07, No Iterations 0
Time = 106.8

DILUPBiCGStab:  Solving for T, Initial residual = 9.87298e-07, Final residual = 9.87298e-07, No Iterations 0
Time = 106.9

DILUPBiCGStab:  Solving for T, Initial residual = 9.87298e-07, Final residual = 9.87298e-07, No Iterations 0
Time = 107

DILUPBiCGStab:  Solving for T, Initial residual = 9.87298e-07, Final residual = 9.87298e-07, No Iterations 0
Time = 107.1

DILUPBiCGStab:  Solving for T, Initial residual = 9.87298e-07, Final residual = 9.87298e-07, No Iterations 0
Time = 107.2

DILUPBiCGStab:  Solving for T, Initial residual = 9.87298e-07, Final residual = 9.87298e-07, No Iterations 0
Time = 107.3

DILUPBiCGStab:  Solving for T, Initial residual = 9.87298e-07, Final residual = 9.87298e-07, No Iterations 0
Time = 107.4

DILUPBiCGStab:  Solving for T, Initial residual = 9.87298e-07, Final residual = 9.87298e-07, No Iterations 0
Time = 107.5

DILUPBiCGStab:  Solving for T, Initial residual = 9.87298e-07, Final residual = 9.87298e-07, No Iterations 0
Time = 107.6

DILUPBiCGStab:  Solving for T, Initial residual = 9.87298e-07, Final residual = 9.87298e-07, No Iterations 0
Time = 107.7

DILUPBiCGStab:  Solving for T, Initial residual = 9.87298e-07, Final residual = 9.87298e-07, No Iterations 0
Time = 107.8

DILUPBiCGStab:  Solving for T, Initial residual = 9.87298e-07, Final residual = 9.87298e-07, No Iterations 0
Time = 107.9

DILUPBiCGStab:  Solving for T, Initial residual = 9.87298e-07, Final residual = 9.87298e-07, No Iterations 0
Time = 108

DILUPBiCGStab:  Solving for T, Initial residual = 9.87298e-07, Final residual = 9.87298e-07, No Iterations 0
Time = 108.1

DILUPBiCGStab:  Solving for T, Initial residual = 9.87298e-07, Final residual = 9.87298e-07, No Iterations 0
Time = 108.2

DILUPBiCGStab:  Solving for T, Initial residual = 9.87298e-07, Final residual = 9.87298e-07, No Iterations 0
Time = 108.3

DILUPBiCGStab:  Solving for T, Initial residual = 9.87298e-07, Final residual = 9.87298e-07, No Iterations 0
Time = 108.4

DILUPBiCGStab:  Solving for T, Initial residual = 9.87298e-07, Final residual = 9.87298e-07, No Iterations 0
Time = 108.5

DILUPBiCGStab:  Solving for T, Initial residual = 9.87298e-07, Final residual = 9.87298e-07, No Iterations 0
Time = 108.6

DILUPBiCGStab:  Solving for T, Initial residual = 9.87298e-07, Final residual = 9.87298e-07, No Iterations 0
Time = 108.7

DILUPBiCGStab:  Solving for T, Initial residual = 9.87298e-07, Final residual = 9.87298e-07, No Iterations 0
Time = 108.8

DILUPBiCGStab:  Solving for T, Initial residual = 9.87298e-07, Final residual = 9.87298e-07, No Iterations 0
Time = 108.9

DILUPBiCGStab:  Solving for T, Initial residual = 9.87298e-07, Final residual = 9.87298e-07, No Iterations 0
Time = 109

DILUPBiCGStab:  Solving for T, Initial residual = 9.87298e-07, Final residual = 9.87298e-07, No Iterations 0
Time = 109.1

DILUPBiCGStab:  Solving for T, Initial residual = 9.87298e-07, Final residual = 9.87298e-07, No Iterations 0
Time = 109.2

DILUPBiCGStab:  Solving for T, Initial residual = 9.87298e-07, Final residual = 9.87298e-07, No Iterations 0
Time = 109.3

DILUPBiCGStab:  Solving for T, Initial residual = 9.87298e-07, Final residual = 9.87298e-07, No Iterations 0
Time = 109.4

DILUPBiCGStab:  Solving for T, Initial residual = 9.87298e-07, Final residual = 9.87298e-07, No Iterations 0
Time = 109.5

DILUPBiCGStab:  Solving for T, Initial residual = 9.87298e-07, Final residual = 9.87298e-07, No Iterations 0
Time = 109.6

DILUPBiCGStab:  Solving for T, Initial residual = 9.87298e-07, Final residual = 9.87298e-07, No Iterations 0
Time = 109.7

DILUPBiCGStab:  Solving for T, Initial residual = 9.87298e-07, Final residual = 9.87298e-07, No Iterations 0
Time = 109.8

DILUPBiCGStab:  Solving for T, Initial residual = 9.87298e-07, Final residual = 9.87298e-07, No Iterations 0
Time = 109.9

DILUPBiCGStab:  Solving for T, Initial residual = 9.87298e-07, Final residual = 9.87298e-07, No Iterations 0
Time = 110

DILUPBiCGStab:  Solving for T, Initial residual = 9.87298e-07, Final residual = 9.87298e-07, No Iterations 0
Time = 110.1

DILUPBiCGStab:  Solving for T, Initial residual = 9.87298e-07, Final residual = 9.87298e-07, No Iterations 0
Time = 110.2

DILUPBiCGStab:  Solving for T, Initial residual = 9.87298e-07, Final residual = 9.87298e-07, No Iterations 0
Time = 110.3

DILUPBiCGStab:  Solving for T, Initial residual = 9.87298e-07, Final residual = 9.87298e-07, No Iterations 0
Time = 110.4

DILUPBiCGStab:  Solving for T, Initial residual = 9.87298e-07, Final residual = 9.87298e-07, No Iterations 0
Time = 110.5

DILUPBiCGStab:  Solving for T, Initial residual = 9.87298e-07, Final residual = 9.87298e-07, No Iterations 0
Time = 110.6

DILUPBiCGStab:  Solving for T, Initial residual = 9.87298e-07, Final residual = 9.87298e-07, No Iterations 0
Time = 110.7

DILUPBiCGStab:  Solving for T, Initial residual = 9.87298e-07, Final residual = 9.87298e-07, No Iterations 0
Time = 110.8

DILUPBiCGStab:  Solving for T, Initial residual = 9.87298e-07, Final residual = 9.87298e-07, No Iterations 0
Time = 110.9

DILUPBiCGStab:  Solving for T, Initial residual = 9.87298e-07, Final residual = 9.87298e-07, No Iterations 0
Time = 111

DILUPBiCGStab:  Solving for T, Initial residual = 9.87298e-07, Final residual = 9.87298e-07, No Iterations 0
Time = 111.1

DILUPBiCGStab:  Solving for T, Initial residual = 9.87298e-07, Final residual = 9.87298e-07, No Iterations 0
Time = 111.2

DILUPBiCGStab:  Solving for T, Initial residual = 9.87298e-07, Final residual = 9.87298e-07, No Iterations 0
Time = 111.3

DILUPBiCGStab:  Solving for T, Initial residual = 9.87298e-07, Final residual = 9.87298e-07, No Iterations 0
Time = 111.4

DILUPBiCGStab:  Solving for T, Initial residual = 9.87298e-07, Final residual = 9.87298e-07, No Iterations 0
Time = 111.5

DILUPBiCGStab:  Solving for T, Initial residual = 9.87298e-07, Final residual = 9.87298e-07, No Iterations 0
Time = 111.6

DILUPBiCGStab:  Solving for T, Initial residual = 9.87298e-07, Final residual = 9.87298e-07, No Iterations 0
Time = 111.7

DILUPBiCGStab:  Solving for T, Initial residual = 9.87298e-07, Final residual = 9.87298e-07, No Iterations 0
Time = 111.8

DILUPBiCGStab:  Solving for T, Initial residual = 9.87298e-07, Final residual = 9.87298e-07, No Iterations 0
Time = 111.9

DILUPBiCGStab:  Solving for T, Initial residual = 9.87298e-07, Final residual = 9.87298e-07, No Iterations 0
Time = 112

DILUPBiCGStab:  Solving for T, Initial residual = 9.87298e-07, Final residual = 9.87298e-07, No Iterations 0
Time = 112.1

DILUPBiCGStab:  Solving for T, Initial residual = 9.87298e-07, Final residual = 9.87298e-07, No Iterations 0
Time = 112.2

DILUPBiCGStab:  Solving for T, Initial residual = 9.87298e-07, Final residual = 9.87298e-07, No Iterations 0
Time = 112.3

DILUPBiCGStab:  Solving for T, Initial residual = 9.87298e-07, Final residual = 9.87298e-07, No Iterations 0
Time = 112.4

DILUPBiCGStab:  Solving for T, Initial residual = 9.87298e-07, Final residual = 9.87298e-07, No Iterations 0
Time = 112.5

DILUPBiCGStab:  Solving for T, Initial residual = 9.87298e-07, Final residual = 9.87298e-07, No Iterations 0
Time = 112.6

DILUPBiCGStab:  Solving for T, Initial residual = 9.87298e-07, Final residual = 9.87298e-07, No Iterations 0
Time = 112.7

DILUPBiCGStab:  Solving for T, Initial residual = 9.87298e-07, Final residual = 9.87298e-07, No Iterations 0
Time = 112.8

DILUPBiCGStab:  Solving for T, Initial residual = 9.87298e-07, Final residual = 9.87298e-07, No Iterations 0
Time = 112.9

DILUPBiCGStab:  Solving for T, Initial residual = 9.87298e-07, Final residual = 9.87298e-07, No Iterations 0
Time = 113

DILUPBiCGStab:  Solving for T, Initial residual = 9.87298e-07, Final residual = 9.87298e-07, No Iterations 0
Time = 113.1

DILUPBiCGStab:  Solving for T, Initial residual = 9.87298e-07, Final residual = 9.87298e-07, No Iterations 0
Time = 113.2

DILUPBiCGStab:  Solving for T, Initial residual = 9.87298e-07, Final residual = 9.87298e-07, No Iterations 0
Time = 113.3

DILUPBiCGStab:  Solving for T, Initial residual = 9.87298e-07, Final residual = 9.87298e-07, No Iterations 0
Time = 113.4

DILUPBiCGStab:  Solving for T, Initial residual = 9.87298e-07, Final residual = 9.87298e-07, No Iterations 0
Time = 113.5

DILUPBiCGStab:  Solving for T, Initial residual = 9.87298e-07, Final residual = 9.87298e-07, No Iterations 0
Time = 113.6

DILUPBiCGStab:  Solving for T, Initial residual = 9.87298e-07, Final residual = 9.87298e-07, No Iterations 0
Time = 113.7

DILUPBiCGStab:  Solving for T, Initial residual = 9.87298e-07, Final residual = 9.87298e-07, No Iterations 0
Time = 113.8

DILUPBiCGStab:  Solving for T, Initial residual = 9.87298e-07, Final residual = 9.87298e-07, No Iterations 0
Time = 113.9

DILUPBiCGStab:  Solving for T, Initial residual = 9.87298e-07, Final residual = 9.87298e-07, No Iterations 0
Time = 114

DILUPBiCGStab:  Solving for T, Initial residual = 9.87298e-07, Final residual = 9.87298e-07, No Iterations 0
Time = 114.1

DILUPBiCGStab:  Solving for T, Initial residual = 9.87298e-07, Final residual = 9.87298e-07, No Iterations 0
Time = 114.2

DILUPBiCGStab:  Solving for T, Initial residual = 9.87298e-07, Final residual = 9.87298e-07, No Iterations 0
Time = 114.3

DILUPBiCGStab:  Solving for T, Initial residual = 9.87298e-07, Final residual = 9.87298e-07, No Iterations 0
Time = 114.4

DILUPBiCGStab:  Solving for T, Initial residual = 9.87298e-07, Final residual = 9.87298e-07, No Iterations 0
Time = 114.5

DILUPBiCGStab:  Solving for T, Initial residual = 9.87298e-07, Final residual = 9.87298e-07, No Iterations 0
Time = 114.6

DILUPBiCGStab:  Solving for T, Initial residual = 9.87298e-07, Final residual = 9.87298e-07, No Iterations 0
Time = 114.7

DILUPBiCGStab:  Solving for T, Initial residual = 9.87298e-07, Final residual = 9.87298e-07, No Iterations 0
Time = 114.8

DILUPBiCGStab:  Solving for T, Initial residual = 9.87298e-07, Final residual = 9.87298e-07, No Iterations 0
Time = 114.9

DILUPBiCGStab:  Solving for T, Initial residual = 9.87298e-07, Final residual = 9.87298e-07, No Iterations 0
Time = 115

DILUPBiCGStab:  Solving for T, Initial residual = 9.87298e-07, Final residual = 9.87298e-07, No Iterations 0
Time = 115.1

DILUPBiCGStab:  Solving for T, Initial residual = 9.87298e-07, Final residual = 9.87298e-07, No Iterations 0
Time = 115.2

DILUPBiCGStab:  Solving for T, Initial residual = 9.87298e-07, Final residual = 9.87298e-07, No Iterations 0
Time = 115.3

DILUPBiCGStab:  Solving for T, Initial residual = 9.87298e-07, Final residual = 9.87298e-07, No Iterations 0
Time = 115.4

DILUPBiCGStab:  Solving for T, Initial residual = 9.87298e-07, Final residual = 9.87298e-07, No Iterations 0
Time = 115.5

DILUPBiCGStab:  Solving for T, Initial residual = 9.87298e-07, Final residual = 9.87298e-07, No Iterations 0
Time = 115.6

DILUPBiCGStab:  Solving for T, Initial residual = 9.87298e-07, Final residual = 9.87298e-07, No Iterations 0
Time = 115.7

DILUPBiCGStab:  Solving for T, Initial residual = 9.87298e-07, Final residual = 9.87298e-07, No Iterations 0
Time = 115.8

DILUPBiCGStab:  Solving for T, Initial residual = 9.87298e-07, Final residual = 9.87298e-07, No Iterations 0
Time = 115.9

DILUPBiCGStab:  Solving for T, Initial residual = 9.87298e-07, Final residual = 9.87298e-07, No Iterations 0
Time = 116

DILUPBiCGStab:  Solving for T, Initial residual = 9.87298e-07, Final residual = 9.87298e-07, No Iterations 0
Time = 116.1

DILUPBiCGStab:  Solving for T, Initial residual = 9.87298e-07, Final residual = 9.87298e-07, No Iterations 0
Time = 116.2

DILUPBiCGStab:  Solving for T, Initial residual = 9.87298e-07, Final residual = 9.87298e-07, No Iterations 0
Time = 116.3

DILUPBiCGStab:  Solving for T, Initial residual = 9.87298e-07, Final residual = 9.87298e-07, No Iterations 0
Time = 116.4

DILUPBiCGStab:  Solving for T, Initial residual = 9.87298e-07, Final residual = 9.87298e-07, No Iterations 0
Time = 116.5

DILUPBiCGStab:  Solving for T, Initial residual = 9.87298e-07, Final residual = 9.87298e-07, No Iterations 0
Time = 116.6

DILUPBiCGStab:  Solving for T, Initial residual = 9.87298e-07, Final residual = 9.87298e-07, No Iterations 0
Time = 116.7

DILUPBiCGStab:  Solving for T, Initial residual = 9.87298e-07, Final residual = 9.87298e-07, No Iterations 0
Time = 116.8

DILUPBiCGStab:  Solving for T, Initial residual = 9.87298e-07, Final residual = 9.87298e-07, No Iterations 0
Time = 116.9

DILUPBiCGStab:  Solving for T, Initial residual = 9.87298e-07, Final residual = 9.87298e-07, No Iterations 0
Time = 117

DILUPBiCGStab:  Solving for T, Initial residual = 9.87298e-07, Final residual = 9.87298e-07, No Iterations 0
Time = 117.1

DILUPBiCGStab:  Solving for T, Initial residual = 9.87298e-07, Final residual = 9.87298e-07, No Iterations 0
Time = 117.2

DILUPBiCGStab:  Solving for T, Initial residual = 9.87298e-07, Final residual = 9.87298e-07, No Iterations 0
Time = 117.3

DILUPBiCGStab:  Solving for T, Initial residual = 9.87298e-07, Final residual = 9.87298e-07, No Iterations 0
Time = 117.4

DILUPBiCGStab:  Solving for T, Initial residual = 9.87298e-07, Final residual = 9.87298e-07, No Iterations 0
Time = 117.5

DILUPBiCGStab:  Solving for T, Initial residual = 9.87298e-07, Final residual = 9.87298e-07, No Iterations 0
Time = 117.6

DILUPBiCGStab:  Solving for T, Initial residual = 9.87298e-07, Final residual = 9.87298e-07, No Iterations 0
Time = 117.7

DILUPBiCGStab:  Solving for T, Initial residual = 9.87298e-07, Final residual = 9.87298e-07, No Iterations 0
Time = 117.8

DILUPBiCGStab:  Solving for T, Initial residual = 9.87298e-07, Final residual = 9.87298e-07, No Iterations 0
Time = 117.9

DILUPBiCGStab:  Solving for T, Initial residual = 9.87298e-07, Final residual = 9.87298e-07, No Iterations 0
Time = 118

DILUPBiCGStab:  Solving for T, Initial residual = 9.87298e-07, Final residual = 9.87298e-07, No Iterations 0
Time = 118.1

DILUPBiCGStab:  Solving for T, Initial residual = 9.87298e-07, Final residual = 9.87298e-07, No Iterations 0
Time = 118.2

DILUPBiCGStab:  Solving for T, Initial residual = 9.87298e-07, Final residual = 9.87298e-07, No Iterations 0
Time = 118.3

DILUPBiCGStab:  Solving for T, Initial residual = 9.87298e-07, Final residual = 9.87298e-07, No Iterations 0
Time = 118.4

DILUPBiCGStab:  Solving for T, Initial residual = 9.87298e-07, Final residual = 9.87298e-07, No Iterations 0
Time = 118.5

DILUPBiCGStab:  Solving for T, Initial residual = 9.87298e-07, Final residual = 9.87298e-07, No Iterations 0
Time = 118.6

DILUPBiCGStab:  Solving for T, Initial residual = 9.87298e-07, Final residual = 9.87298e-07, No Iterations 0
Time = 118.7

DILUPBiCGStab:  Solving for T, Initial residual = 9.87298e-07, Final residual = 9.87298e-07, No Iterations 0
Time = 118.8

DILUPBiCGStab:  Solving for T, Initial residual = 9.87298e-07, Final residual = 9.87298e-07, No Iterations 0
Time = 118.9

DILUPBiCGStab:  Solving for T, Initial residual = 9.87298e-07, Final residual = 9.87298e-07, No Iterations 0
Time = 119

DILUPBiCGStab:  Solving for T, Initial residual = 9.87298e-07, Final residual = 9.87298e-07, No Iterations 0
Time = 119.1

DILUPBiCGStab:  Solving for T, Initial residual = 9.87298e-07, Final residual = 9.87298e-07, No Iterations 0
Time = 119.2

DILUPBiCGStab:  Solving for T, Initial residual = 9.87298e-07, Final residual = 9.87298e-07, No Iterations 0
Time = 119.3

DILUPBiCGStab:  Solving for T, Initial residual = 9.87298e-07, Final residual = 9.87298e-07, No Iterations 0
Time = 119.4

DILUPBiCGStab:  Solving for T, Initial residual = 9.87298e-07, Final residual = 9.87298e-07, No Iterations 0
Time = 119.5

DILUPBiCGStab:  Solving for T, Initial residual = 9.87298e-07, Final residual = 9.87298e-07, No Iterations 0
Time = 119.6

DILUPBiCGStab:  Solving for T, Initial residual = 9.87298e-07, Final residual = 9.87298e-07, No Iterations 0
Time = 119.7

DILUPBiCGStab:  Solving for T, Initial residual = 9.87298e-07, Final residual = 9.87298e-07, No Iterations 0
Time = 119.8

DILUPBiCGStab:  Solving for T, Initial residual = 9.87298e-07, Final residual = 9.87298e-07, No Iterations 0
Time = 119.9

DILUPBiCGStab:  Solving for T, Initial residual = 9.87298e-07, Final residual = 9.87298e-07, No Iterations 0
Time = 120

DILUPBiCGStab:  Solving for T, Initial residual = 9.87298e-07, Final residual = 9.87298e-07, No Iterations 0
End

