/*---------------------------------------------------------------------------*\
| =========                 |                                                 |
| \\      /  F ield         | OpenFOAM: The Open Source CFD Toolbox           |
|  \\    /   O peration     | Version:  3.0.x                                 |
|   \\  /    A nd           | Web:      www.OpenFOAM.org                      |
|    \\/     M anipulation  |                                                 |
\*---------------------------------------------------------------------------*/
Build  : 3.0.x-5b548639bc6e
Exec   : icoFoam
Date   : Jun 16 2016
Time   : 17:23:01
Host   : "dagobah"
PID    : 8767
Case   : /home/joegi/OpenFOAM/of_courses/2016a/of_course_tutorials/30x/101Linear_SOLVERS/pipe_icoFoam
nProcs : 1
sigFpe : Enabling floating point exception trapping (FOAM_SIGFPE).
fileModificationChecking : Monitoring run-time modified files using timeStampMaster
allowSystemOperations : Allowing user-supplied system call operations

// * * * * * * * * * * * * * * * * * * * * * * * * * * * * * * * * * * * * * //
Create time

Create mesh for time = 0


PISO: Operating solver in PISO mode

Reading transportProperties

Reading field p

Reading field U

Reading/calculating face flux field phi


Starting time loop

Time = 0.0005

Courant Number mean: 0 max: 0
smoothSolver:  Solving for Ux, Initial residual = 0, Final residual = 0, No Iterations 0
smoothSolver:  Solving for Uy, Initial residual = 0, Final residual = 0, No Iterations 0
smoothSolver:  Solving for Uz, Initial residual = 1, Final residual = 5.7493319e-09, No Iterations 15
GAMG:  Solving for p, Initial residual = 1, Final residual = 0.06947287, No Iterations 1000
GAMG:  Solving for p, Initial residual = 0.00055973417, Final residual = 7.5178216e-06, No Iterations 1000
time step continuity errors : sum local = 3.5775089e-06, global = -2.6156673e-07, cumulative = -2.6156673e-07
GAMG:  Solving for p, Initial residual = 0.0043266808, Final residual = 0.0002953318, No Iterations 1000
GAMG:  Solving for p, Initial residual = 0.00094629123, Final residual = 1.1751726e-05, No Iterations 1000
time step continuity errors : sum local = 2.2160846e-06, global = 1.6202646e-07, cumulative = -9.9540263e-08
ExecutionTime = 18.87 s  ClockTime = 19 s

fieldMinMax minmaxdomain output:
    min(p) = 0 at location (-0.000525 0 0.216)
    max(p) = 706.57949 at location (0.0014503614 -0.00014395118 0.0015)
    min(U) = (-0.0079549343 -0.0053337305 0.42017396) at location (0.0011227589 0.00092118362 0.0015)
    max(U) = (0.011254223 0.017661546 0.96820693) at location (-0.00067060103 -0.00082388178 0.0015)

Time = 0.001

Courant Number mean: 0.23869155 max: 0.39452236
smoothSolver:  Solving for Ux, Initial residual = 0.36149003, Final residual = 5.5578777e-09, No Iterations 13
smoothSolver:  Solving for Uy, Initial residual = 0.36144181, Final residual = 5.9580007e-09, No Iterations 13
smoothSolver:  Solving for Uz, Initial residual = 0.60038273, Final residual = 3.4625197e-09, No Iterations 15
GAMG:  Solving for p, Initial residual = 0.019760999, Final residual = 0.0012464184, No Iterations 1000
GAMG:  Solving for p, Initial residual = 0.0011317651, Final residual = 1.3165476e-05, No Iterations 1000
time step continuity errors : sum local = 3.4689411e-06, global = 2.4857518e-07, cumulative = 1.4903491e-07
GAMG:  Solving for p, Initial residual = 0.0078288557, Final residual = 0.00051283665, No Iterations 1000
GAMG:  Solving for p, Initial residual = 0.034778391, Final residual = 0.00037297733, No Iterations 1000
time step continuity errors : sum local = 2.148127e-06, global = -1.5392951e-07, cumulative = -4.8945936e-09
ExecutionTime = 36.98 s  ClockTime = 37 s

fieldMinMax minmaxdomain output:
    min(p) = 0 at location (-0.000525 0 0.216)
    max(p) = 28.814629 at location (0.0011227589 0.00092118362 0.0015)
    min(U) = (-0.010578346 -0.041785259 1.0393371) at location (0.00033812783 0.0011454499 0.0015)
    max(U) = (0.018456009 1.0135195e-07 1.1212612) at location (-0.000525 -6.8173165e-21 0.0015)

Time = 0.0015

Courant Number mean: 0.23990208 max: 0.47644483
smoothSolver:  Solving for Ux, Initial residual = 0.18557969, Final residual = 4.2960157e-09, No Iterations 13
smoothSolver:  Solving for Uy, Initial residual = 0.18541367, Final residual = 4.5509526e-09, No Iterations 13
smoothSolver:  Solving for Uz, Initial residual = 0.070429905, Final residual = 6.7275218e-09, No Iterations 12
GAMG:  Solving for p, Initial residual = 0.064640067, Final residual = 0.00064183757, No Iterations 782
GAMG:  Solving for p, Initial residual = 0.0044289474, Final residual = 4.3965911e-05, No Iterations 546
time step continuity errors : sum local = 5.5012136e-07, global = -3.8179797e-08, cumulative = -4.307439e-08
GAMG:  Solving for p, Initial residual = 0.018506268, Final residual = 0.00018376661, No Iterations 874
GAMG:  Solving for p, Initial residual = 0.0029768495, Final residual = 3.5055264e-06, No Iterations 1000
time step continuity errors : sum local = 3.5224076e-08, global = 2.5163329e-09, cumulative = -4.0558058e-08
ExecutionTime = 50.84 s  ClockTime = 51 s

fieldMinMax minmaxdomain output:
    min(p) = 0 at location (-0.000525 0 0.216)
    max(p) = 35.992338 at location (0.0014503614 -0.00014395118 0.0015)
    min(U) = (-0.022914818 -0.045535828 1.1305844) at location (0.00054926903 0.00104461 0.0015)
    max(U) = (0.024512812 1.2076318e-07 1.2212162) at location (-0.000525 -6.8173165e-21 0.0015)

Time = 0.002

Courant Number mean: 0.24036198 max: 0.5147046
smoothSolver:  Solving for Ux, Initial residual = 0.07415624, Final residual = 5.3791798e-09, No Iterations 12
smoothSolver:  Solving for Uy, Initial residual = 0.074027843, Final residual = 5.7981628e-09, No Iterations 12
smoothSolver:  Solving for Uz, Initial residual = 0.04609525, Final residual = 7.477118e-09, No Iterations 12
GAMG:  Solving for p, Initial residual = 0.01417402, Final residual = 0.00016137425, No Iterations 1000
GAMG:  Solving for p, Initial residual = 0.0014106436, Final residual = 1.4051907e-05, No Iterations 676
time step continuity errors : sum local = 9.499453e-08, global = 6.7339676e-09, cumulative = -3.382409e-08
GAMG:  Solving for p, Initial residual = 0.0083721865, Final residual = 0.00014652035, No Iterations 1000
GAMG:  Solving for p, Initial residual = 0.00055547155, Final residual = 1.7968265e-06, No Iterations 1000
time step continuity errors : sum local = 1.5510916e-08, global = -1.1115231e-09, cumulative = -3.4935613e-08
ExecutionTime = 67.1 s  ClockTime = 68 s

fieldMinMax minmaxdomain output:
    min(p) = 0 at location (-0.000525 0 0.216)
    max(p) = 31.012249 at location (0.00014395118 -0.0014503614 0.0015)
    min(U) = (-0.035531283 -0.043914518 1.1791308) at location (0.00074157724 0.00090853718 0.0015)
    max(U) = (0.028534827 5.4669819e-08 1.2883374) at location (-0.000525 -6.8173165e-21 0.0015)

Time = 0.0025

Courant Number mean: 0.24071592 max: 0.53885624
smoothSolver:  Solving for Ux, Initial residual = 0.05098173, Final residual = 4.6708386e-09, No Iterations 12
smoothSolver:  Solving for Uy, Initial residual = 0.050963231, Final residual = 4.99561e-09, No Iterations 12
smoothSolver:  Solving for Uz, Initial residual = 0.03254001, Final residual = 5.7381998e-09, No Iterations 12
GAMG:  Solving for p, Initial residual = 0.008252915, Final residual = 9.9959756e-05, No Iterations 1000
GAMG:  Solving for p, Initial residual = 0.00075097863, Final residual = 7.4854814e-06, No Iterations 674
time step continuity errors : sum local = 5.1433783e-08, global = 3.6424151e-09, cumulative = -3.1293198e-08
GAMG:  Solving for p, Initial residual = 0.0030053574, Final residual = 7.7390794e-05, No Iterations 1000
GAMG:  Solving for p, Initial residual = 0.00035795249, Final residual = 1.0534122e-06, No Iterations 1000
time step continuity errors : sum local = 8.3247743e-09, global = -5.9626853e-10, cumulative = -3.1889466e-08
ExecutionTime = 82.98 s  ClockTime = 83 s

fieldMinMax minmaxdomain output:
    min(p) = 0 at location (-0.000525 0 0.216)
    max(p) = 28.370705 at location (0.0014503614 -0.00014395118 0.0015)
    min(U) = (-0.038065755 -0.046932515 1.2047219) at location (0.00074157724 0.00090853718 0.0015)
    max(U) = (0.031628243 2.4203786e-08 1.331744) at location (-0.000525 -6.8173165e-21 0.0015)

Time = 0.003

Courant Number mean: 0.24098742 max: 0.5545582
smoothSolver:  Solving for Ux, Initial residual = 0.037510929, Final residual = 3.548086e-09, No Iterations 12
smoothSolver:  Solving for Uy, Initial residual = 0.037496191, Final residual = 3.8275538e-09, No Iterations 12
smoothSolver:  Solving for Uz, Initial residual = 0.025182751, Final residual = 4.7480788e-09, No Iterations 12
GAMG:  Solving for p, Initial residual = 0.0051323813, Final residual = 7.5600344e-05, No Iterations 1000
GAMG:  Solving for p, Initial residual = 0.00040638428, Final residual = 4.062324e-06, No Iterations 740
time step continuity errors : sum local = 2.71711e-08, global = 1.9301341e-09, cumulative = -2.9959332e-08
GAMG:  Solving for p, Initial residual = 0.0015769662, Final residual = 5.513519e-05, No Iterations 1000
GAMG:  Solving for p, Initial residual = 0.00020591545, Final residual = 9.9779044e-07, No Iterations 940
time step continuity errors : sum local = 7.3859864e-09, global = -5.2824603e-10, cumulative = -3.0487578e-08
ExecutionTime = 99.26 s  ClockTime = 100 s

fieldMinMax minmaxdomain output:
    min(p) = 0 at location (-0.000525 0 0.216)
    max(p) = 26.554704 at location (0.00014395118 -0.0014503614 0.0015)
    min(U) = (-0.028719206 -0.056300379 1.3020372) at location (0.00049574271 0.00095086855 0.0015)
    max(U) = (0.033890625 1.2088017e-08 1.3604605) at location (-0.000525 -6.8173165e-21 0.0015)

Time = 0.0035

Courant Number mean: 0.24120845 max: 0.56726451
smoothSolver:  Solving for Ux, Initial residual = 0.03004435, Final residual = 2.9584646e-09, No Iterations 12
smoothSolver:  Solving for Uy, Initial residual = 0.030046171, Final residual = 3.1896457e-09, No Iterations 12
smoothSolver:  Solving for Uz, Initial residual = 0.020129893, Final residual = 4.0412947e-09, No Iterations 12
GAMG:  Solving for p, Initial residual = 0.0036957485, Final residual = 5.9527239e-05, No Iterations 1000
GAMG:  Solving for p, Initial residual = 0.00033082542, Final residual = 3.2924179e-06, No Iterations 724
time step continuity errors : sum local = 2.1430216e-08, global = 1.5214238e-09, cumulative = -2.8966155e-08
GAMG:  Solving for p, Initial residual = 0.001143698, Final residual = 4.1809116e-05, No Iterations 1000
GAMG:  Solving for p, Initial residual = 0.00016845711, Final residual = 9.9964313e-07, No Iterations 878
time step continuity errors : sum local = 7.0327536e-09, global = -5.020951e-10, cumulative = -2.946825e-08
ExecutionTime = 114.77 s  ClockTime = 115 s

fieldMinMax minmaxdomain output:
    min(p) = 0 at location (-0.000525 0 0.216)
    max(p) = 25.227898 at location (-0.00014395118 -0.0014503614 0.0015)
    min(U) = (-0.0069958186 -0.066211823 1.2854722) at location (0.00010410184 0.0011123239 0.0015)
    max(U) = (0.040512494 0.019227007 1.3804353) at location (-0.00061610739 -0.00030459428 0.0015)

Time = 0.004

Courant Number mean: 0.24140009 max: 0.57717805
smoothSolver:  Solving for Ux, Initial residual = 0.024738099, Final residual = 8.9615572e-09, No Iterations 11
smoothSolver:  Solving for Uy, Initial residual = 0.024740626, Final residual = 9.5352083e-09, No Iterations 11
smoothSolver:  Solving for Uz, Initial residual = 0.016424767, Final residual = 3.496386e-09, No Iterations 12
GAMG:  Solving for p, Initial residual = 0.0028188999, Final residual = 4.8288345e-05, No Iterations 1000
GAMG:  Solving for p, Initial residual = 0.00025867149, Final residual = 2.5832342e-06, No Iterations 726
time step continuity errors : sum local = 1.6398039e-08, global = 1.1643591e-09, cumulative = -2.8303891e-08
GAMG:  Solving for p, Initial residual = 0.00088799967, Final residual = 3.3061447e-05, No Iterations 1000
GAMG:  Solving for p, Initial residual = 0.00013418257, Final residual = 9.9455396e-07, No Iterations 826
time step continuity errors : sum local = 6.7165889e-09, global = -4.7873843e-10, cumulative = -2.8782629e-08
ExecutionTime = 130.5 s  ClockTime = 131 s

fieldMinMax minmaxdomain output:
    min(p) = 0 at location (-0.000525 0 0.216)
    max(p) = 24.213549 at location (-0.00014395118 -0.0014503614 0.0015)
    min(U) = (-0.0071211684 -0.067750946 1.296284) at location (0.00010410184 0.0011123239 0.0015)
    max(U) = (0.042752982 0.034148396 1.3960197) at location (-0.0006310689 -0.00050894412 0.0015)

Time = 0.0045

Courant Number mean: 0.24157944 max: 0.58402439
smoothSolver:  Solving for Ux, Initial residual = 0.020829999, Final residual = 7.8219452e-09, No Iterations 11
smoothSolver:  Solving for Uy, Initial residual = 0.020831968, Final residual = 8.1941869e-09, No Iterations 11
smoothSolver:  Solving for Uz, Initial residual = 0.013691344, Final residual = 3.0581118e-09, No Iterations 12
GAMG:  Solving for p, Initial residual = 0.0022832373, Final residual = 4.0010653e-05, No Iterations 1000
GAMG:  Solving for p, Initial residual = 0.00020811836, Final residual = 2.0679324e-06, No Iterations 730
time step continuity errors : sum local = 1.2837336e-08, global = 9.1176585e-10, cumulative = -2.7870863e-08
GAMG:  Solving for p, Initial residual = 0.00074784827, Final residual = 2.689362e-05, No Iterations 1000
GAMG:  Solving for p, Initial residual = 0.00010899881, Final residual = 9.9695289e-07, No Iterations 778
time step continuity errors : sum local = 6.51023e-09, global = -4.6327056e-10, cumulative = -2.8334134e-08
ExecutionTime = 146.59 s  ClockTime = 147 s

fieldMinMax minmaxdomain output:
    min(p) = 0 at location (-0.000525 0 0.216)
    max(p) = 23.413127 at location (-0.00014395118 -0.0014503614 0.0015)
    min(U) = (-0.0072047892 -0.068814427 1.3049359) at location (0.00010410184 0.0011123239 0.0015)
    max(U) = (0.043745015 0.034937501 1.40843) at location (-0.0006310689 -0.00050894412 0.0015)

Time = 0.005

Courant Number mean: 0.24174019 max: 0.58872431
smoothSolver:  Solving for Ux, Initial residual = 0.017780219, Final residual = 7.0222878e-09, No Iterations 11
smoothSolver:  Solving for Uy, Initial residual = 0.017781559, Final residual = 7.1926642e-09, No Iterations 11
smoothSolver:  Solving for Uz, Initial residual = 0.011627668, Final residual = 8.85058e-09, No Iterations 11
GAMG:  Solving for p, Initial residual = 0.0019124313, Final residual = 3.368279e-05, No Iterations 1000
GAMG:  Solving for p, Initial residual = 0.00017080572, Final residual = 1.7036971e-06, No Iterations 732
time step continuity errors : sum local = 1.0369425e-08, global = 7.3662237e-10, cumulative = -2.7597511e-08
GAMG:  Solving for p, Initial residual = 0.00066000482, Final residual = 2.2328783e-05, No Iterations 1000
GAMG:  Solving for p, Initial residual = 9.0227717e-05, Final residual = 9.9251049e-07, No Iterations 736
time step continuity errors : sum local = 6.3011686e-09, global = -4.4770465e-10, cumulative = -2.8045216e-08
ExecutionTime = 165.76 s  ClockTime = 166 s

fieldMinMax minmaxdomain output:
    min(p) = 0 at location (-0.000525 0 0.216)
    max(p) = 22.766423 at location (-0.00014395118 -0.0014503614 0.0015)
    min(U) = (-0.0072606118 -0.0695418 1.3120598) at location (0.00010410184 0.0011123239 0.0015)
    max(U) = (0.044427193 0.035478417 1.4181541) at location (-0.0006310689 -0.00050894412 0.0015)

Time = 0.0055

Courant Number mean: 0.2418828 max: 0.59192596
smoothSolver:  Solving for Ux, Initial residual = 0.015317332, Final residual = 6.2733831e-09, No Iterations 11
smoothSolver:  Solving for Uy, Initial residual = 0.01531853, Final residual = 6.4239732e-09, No Iterations 11
smoothSolver:  Solving for Uz, Initial residual = 0.010023112, Final residual = 7.8518868e-09, No Iterations 11
GAMG:  Solving for p, Initial residual = 0.0016230442, Final residual = 2.8714218e-05, No Iterations 1000
GAMG:  Solving for p, Initial residual = 0.00014066591, Final residual = 1.4025261e-06, No Iterations 738
time step continuity errors : sum local = 8.3887771e-09, global = 5.9613803e-10, cumulative = -2.7449078e-08
GAMG:  Solving for p, Initial residual = 0.00059256837, Final residual = 1.8832663e-05, No Iterations 1000
GAMG:  Solving for p, Initial residual = 7.5219696e-05, Final residual = 9.9377676e-07, No Iterations 696
time step continuity errors : sum local = 6.1599498e-09, global = -4.3698981e-10, cumulative = -2.7886068e-08
ExecutionTime = 181.99 s  ClockTime = 183 s

fieldMinMax minmaxdomain output:
    min(p) = 0 at location (-0.000525 0 0.216)
    max(p) = 22.23418 at location (-0.00014395118 -0.0014503614 0.0015)
    min(U) = (-0.0072979673 -0.070033956 1.3179756) at location (0.00010410184 0.0011123239 0.0015)
    max(U) = (0.044880763 0.035837321 1.4259965) at location (-0.0006310689 -0.00050894412 0.0015)

Time = 0.006

Courant Number mean: 0.24201028 max: 0.59408827
smoothSolver:  Solving for Ux, Initial residual = 0.013297491, Final residual = 5.5480688e-09, No Iterations 11
smoothSolver:  Solving for Uy, Initial residual = 0.013298643, Final residual = 5.6869077e-09, No Iterations 11
smoothSolver:  Solving for Uz, Initial residual = 0.0087184333, Final residual = 6.9939336e-09, No Iterations 11
GAMG:  Solving for p, Initial residual = 0.001388468, Final residual = 2.4728723e-05, No Iterations 1000
GAMG:  Solving for p, Initial residual = 0.00011672466, Final residual = 1.1594249e-06, No Iterations 746
time step continuity errors : sum local = 6.8286672e-09, global = 4.8548972e-10, cumulative = -2.7400578e-08
GAMG:  Solving for p, Initial residual = 0.00053143312, Final residual = 1.6082284e-05, No Iterations 1000
GAMG:  Solving for p, Initial residual = 6.3211125e-05, Final residual = 9.9801968e-07, No Iterations 658
time step continuity errors : sum local = 6.0604409e-09, global = -4.2925702e-10, cumulative = -2.7829835e-08
ExecutionTime = 198.32 s  ClockTime = 199 s

fieldMinMax minmaxdomain output:
    min(p) = 0 at location (-0.000525 0 0.216)
    max(p) = 21.789618 at location (-0.00014395118 -0.0014503614 0.0015)
    min(U) = (-0.0073231602 -0.070363414 1.3228615) at location (0.00010410184 0.0011123239 0.0015)
    max(U) = (0.045170785 0.036066661 1.4324495) at location (-0.0006310689 -0.00050894412 0.0015)

Time = 0.0065

Courant Number mean: 0.24212409 max: 0.59553652
smoothSolver:  Solving for Ux, Initial residual = 0.011629661, Final residual = 4.915787e-09, No Iterations 11
smoothSolver:  Solving for Uy, Initial residual = 0.011630839, Final residual = 5.0020702e-09, No Iterations 11
smoothSolver:  Solving for Uz, Initial residual = 0.0076277458, Final residual = 6.2492578e-09, No Iterations 11
GAMG:  Solving for p, Initial residual = 0.0012076079, Final residual = 2.1475475e-05, No Iterations 1000
GAMG:  Solving for p, Initial residual = 9.743166e-05, Final residual = 9.9230231e-07, No Iterations 748
time step continuity errors : sum local = 5.765022e-09, global = 4.0995969e-10, cumulative = -2.7419875e-08
GAMG:  Solving for p, Initial residual = 0.00047291415, Final residual = 1.3871565e-05, No Iterations 1000
GAMG:  Solving for p, Initial residual = 5.3840881e-05, Final residual = 9.949705e-07, No Iterations 624
time step continuity errors : sum local = 5.9352762e-09, global = -4.1977755e-10, cumulative = -2.7839653e-08
ExecutionTime = 213.1 s  ClockTime = 214 s

fieldMinMax minmaxdomain output:
    min(p) = 0 at location (-0.000525 0 0.216)
    max(p) = 21.413789 at location (-0.00014395118 -0.0014503614 0.0015)
    min(U) = (-0.0073403181 -0.070582101 1.3268383) at location (0.00010410184 0.0011123239 0.0015)
    max(U) = (0.045348089 0.036207091 1.4378174) at location (-0.0006310689 -0.00050894412 0.0015)

Time = 0.007

Courant Number mean: 0.24222634 max: 0.59650065
smoothSolver:  Solving for Ux, Initial residual = 0.010239278, Final residual = 4.3893792e-09, No Iterations 11
smoothSolver:  Solving for Uy, Initial residual = 0.010240174, Final residual = 4.4183534e-09, No Iterations 11
smoothSolver:  Solving for Uz, Initial residual = 0.0067036507, Final residual = 5.5984891e-09, No Iterations 11
GAMG:  Solving for p, Initial residual = 0.0010562055, Final residual = 1.8781687e-05, No Iterations 1000
GAMG:  Solving for p, Initial residual = 8.3476661e-05, Final residual = 9.9292326e-07, No Iterations 714
time step continuity errors : sum local = 5.6991418e-09, global = 4.0478575e-10, cumulative = -2.7434867e-08
GAMG:  Solving for p, Initial residual = 0.00041800616, Final residual = 1.2059923e-05, No Iterations 1000
GAMG:  Solving for p, Initial residual = 4.7288725e-05, Final residual = 9.9919958e-07, No Iterations 590
time step continuity errors : sum local = 5.8687156e-09, global = -4.144351e-10, cumulative = -2.7849302e-08
ExecutionTime = 228.17 s  ClockTime = 229 s

fieldMinMax minmaxdomain output:
    min(p) = 0 at location (-0.000525 0 0.216)
    max(p) = 21.092856 at location (-0.00014395118 -0.0014503614 0.0015)
    min(U) = (-0.0073522744 -0.070726744 1.3300092) at location (0.00010410184 0.0011123239 0.0015)
    max(U) = (0.045451226 0.036289257 1.4422957) at location (-0.0006310689 -0.00050894412 0.0015)

Time = 0.0075

Courant Number mean: 0.24231864 max: 0.59714168
smoothSolver:  Solving for Ux, Initial residual = 0.0090667423, Final residual = 3.9065562e-09, No Iterations 11
smoothSolver:  Solving for Uy, Initial residual = 0.0090676197, Final residual = 3.927951e-09, No Iterations 11
smoothSolver:  Solving for Uz, Initial residual = 0.005913697, Final residual = 5.0245911e-09, No Iterations 11
GAMG:  Solving for p, Initial residual = 0.00091992009, Final residual = 1.6519113e-05, No Iterations 1000
GAMG:  Solving for p, Initial residual = 7.2987707e-05, Final residual = 9.9204414e-07, No Iterations 682
time step continuity errors : sum local = 5.633096e-09, global = 3.9962025e-10, cumulative = -2.7449682e-08
GAMG:  Solving for p, Initial residual = 0.00037881997, Final residual = 1.0554355e-05, No Iterations 1000
GAMG:  Solving for p, Initial residual = 4.1580199e-05, Final residual = 9.9310535e-07, No Iterations 560
time step continuity errors : sum local = 5.7540929e-09, global = -4.0577857e-10, cumulative = -2.7855461e-08
ExecutionTime = 243.98 s  ClockTime = 245 s

fieldMinMax minmaxdomain output:
    min(p) = 0 at location (-0.000525 0 0.216)
    max(p) = 20.81656 at location (-0.00014395118 -0.0014503614 0.0015)
    min(U) = (-0.0073608715 -0.070822933 1.3324755) at location (0.00010410184 0.0011123239 0.0015)
    max(U) = (0.045508429 0.036335532 1.4460209) at location (-0.0006310689 -0.00050894412 0.0015)

Time = 0.008

Courant Number mean: 0.24240191 max: 0.59757112
smoothSolver:  Solving for Ux, Initial residual = 0.008085702, Final residual = 3.4705441e-09, No Iterations 11
smoothSolver:  Solving for Uy, Initial residual = 0.0080864404, Final residual = 3.4870597e-09, No Iterations 11
smoothSolver:  Solving for Uz, Initial residual = 0.0052358893, Final residual = 4.5165748e-09, No Iterations 11
GAMG:  Solving for p, Initial residual = 0.00080182896, Final residual = 1.4603005e-05, No Iterations 1000
GAMG:  Solving for p, Initial residual = 6.3517593e-05, Final residual = 9.9707842e-07, No Iterations 650
time step continuity errors : sum local = 5.6076673e-09, global = 3.9732388e-10, cumulative = -2.7458137e-08
GAMG:  Solving for p, Initial residual = 0.00034869365, Final residual = 9.2902007e-06, No Iterations 1000
GAMG:  Solving for p, Initial residual = 3.6327066e-05, Final residual = 9.9244755e-07, No Iterations 530
time step continuity errors : sum local = 5.6818029e-09, global = -4.0010635e-10, cumulative = -2.7858243e-08
ExecutionTime = 259.56 s  ClockTime = 260 s

fieldMinMax minmaxdomain output:
    min(p) = 0 at location (-0.000525 0 0.216)
    max(p) = 20.577014 at location (-0.00014395118 -0.0014503614 0.0015)
    min(U) = (-0.0073673097 -0.070888222 1.3343393) at location (0.00010410184 0.0011123239 0.0015)
    max(U) = (0.045539625 0.036361585 1.4490985) at location (-0.0006310689 -0.00050894412 0.0015)

Time = 0.0085

Courant Number mean: 0.24247724 max: 0.59786507
smoothSolver:  Solving for Ux, Initial residual = 0.0072346719, Final residual = 3.116085e-09, No Iterations 11
smoothSolver:  Solving for Uy, Initial residual = 0.0072353787, Final residual = 3.1015535e-09, No Iterations 11
smoothSolver:  Solving for Uz, Initial residual = 0.0046594628, Final residual = 4.064888e-09, No Iterations 11
GAMG:  Solving for p, Initial residual = 0.00071009087, Final residual = 1.2964072e-05, No Iterations 1000
GAMG:  Solving for p, Initial residual = 5.4783043e-05, Final residual = 9.9884144e-07, No Iterations 620
time step continuity errors : sum local = 5.5698571e-09, global = 3.94173e-10, cumulative = -2.746407e-08
GAMG:  Solving for p, Initial residual = 0.00031618252, Final residual = 8.2168547e-06, No Iterations 1000
GAMG:  Solving for p, Initial residual = 3.1503571e-05, Final residual = 9.9634427e-07, No Iterations 500
time step continuity errors : sum local = 5.6440955e-09, global = -3.9685898e-10, cumulative = -2.7860929e-08
ExecutionTime = 274.7 s  ClockTime = 275 s

fieldMinMax minmaxdomain output:
    min(p) = 0 at location (-0.000525 0 0.216)
    max(p) = 20.3681 at location (0.00014395118 -0.0014503614 0.0015)
    min(U) = (-0.0073723244 -0.070934379 1.3357018) at location (0.00010410184 0.0011123239 0.0015)
    max(U) = (0.045558171 0.036377862 1.451618) at location (-0.0006310689 -0.00050894412 0.0015)

Time = 0.009

Courant Number mean: 0.24254542 max: 0.59807438
smoothSolver:  Solving for Ux, Initial residual = 0.0064837669, Final residual = 9.8821558e-09, No Iterations 10
smoothSolver:  Solving for Uy, Initial residual = 0.0064843291, Final residual = 9.872037e-09, No Iterations 10
smoothSolver:  Solving for Uz, Initial residual = 0.0041553291, Final residual = 3.660865e-09, No Iterations 11
GAMG:  Solving for p, Initial residual = 0.00063569187, Final residual = 1.1551184e-05, No Iterations 1000
GAMG:  Solving for p, Initial residual = 4.6873027e-05, Final residual = 9.9660693e-07, No Iterations 592
time step continuity errors : sum local = 5.5153602e-09, global = 3.8987409e-10, cumulative = -2.7471055e-08
GAMG:  Solving for p, Initial residual = 0.00028791254, Final residual = 7.2973841e-06, No Iterations 1000
GAMG:  Solving for p, Initial residual = 2.715081e-05, Final residual = 9.9593097e-07, No Iterations 472
time step continuity errors : sum local = 5.5891721e-09, global = -3.9244077e-10, cumulative = -2.7863496e-08
ExecutionTime = 289.24 s  ClockTime = 290 s

fieldMinMax minmaxdomain output:
    min(p) = 0 at location (-0.000525 0 0.216)
    max(p) = 20.184979 at location (0.00014395118 -0.0014503614 0.0015)
    min(U) = (-0.0073763876 -0.070969052 1.3366597) at location (0.00010410184 0.0011123239 0.0015)
    max(U) = (0.045572456 0.036390883 1.4536604) at location (-0.0006310689 -0.00050894412 0.0015)

Time = 0.0095

Courant Number mean: 0.24260722 max: 0.59823207
smoothSolver:  Solving for Ux, Initial residual = 0.0058189779, Final residual = 8.9529469e-09, No Iterations 10
smoothSolver:  Solving for Uy, Initial residual = 0.0058194767, Final residual = 8.8930282e-09, No Iterations 10
smoothSolver:  Solving for Uz, Initial residual = 0.0037126071, Final residual = 3.300683e-09, No Iterations 11
GAMG:  Solving for p, Initial residual = 0.00057621755, Final residual = 1.0324907e-05, No Iterations 1000
GAMG:  Solving for p, Initial residual = 3.9959083e-05, Final residual = 9.980094e-07, No Iterations 564
time step continuity errors : sum local = 5.4859644e-09, global = 3.8734666e-10, cumulative = -2.7476149e-08
GAMG:  Solving for p, Initial residual = 0.00026722885, Final residual = 6.5034525e-06, No Iterations 1000
GAMG:  Solving for p, Initial residual = 2.3317293e-05, Final residual = 9.9887044e-07, No Iterations 444
time step continuity errors : sum local = 5.5594257e-09, global = -3.8978531e-10, cumulative = -2.7865934e-08
ExecutionTime = 303.22 s  ClockTime = 304 s

fieldMinMax minmaxdomain output:
    min(p) = 0 at location (-0.000525 0 0.216)
    max(p) = 20.023759 at location (0.00014395118 -0.0014503614 0.0015)
    min(U) = (-0.007379799 -0.070997019 1.3373014) at location (0.00010410184 0.0011123239 0.0015)
    max(U) = (0.045587253 0.036404316 1.4552998) at location (-0.0006310689 -0.00050894412 0.0015)

Time = 0.01

Courant Number mean: 0.24266347 max: 0.59835886
smoothSolver:  Solving for Ux, Initial residual = 0.0052529389, Final residual = 8.1100208e-09, No Iterations 10
smoothSolver:  Solving for Uy, Initial residual = 0.0052533486, Final residual = 8.0446148e-09, No Iterations 10
smoothSolver:  Solving for Uz, Initial residual = 0.0033229885, Final residual = 9.8154763e-09, No Iterations 10
GAMG:  Solving for p, Initial residual = 0.00052202718, Final residual = 9.2529954e-06, No Iterations 1000
GAMG:  Solving for p, Initial residual = 3.4004536e-05, Final residual = 9.9423004e-07, No Iterations 538
time step continuity errors : sum local = 5.4323042e-09, global = 3.8314139e-10, cumulative = -2.7482793e-08
GAMG:  Solving for p, Initial residual = 0.00024470963, Final residual = 5.8128228e-06, No Iterations 1000
GAMG:  Solving for p, Initial residual = 1.9985022e-05, Final residual = 9.9634454e-07, No Iterations 418
time step continuity errors : sum local = 5.5046723e-09, global = -3.8542483e-10, cumulative = -2.7868218e-08
ExecutionTime = 320.98 s  ClockTime = 322 s

fieldMinMax minmaxdomain output:
    min(p) = 0 at location (-0.000525 0 0.216)
    max(p) = 19.881289 at location (0.00014395118 -0.0014503614 0.0015)
    min(U) = (-0.0073827374 -0.071021113 1.3377048) at location (0.00010410184 0.0011123239 0.0015)
    max(U) = (0.045604811 0.036419861 1.4566043) at location (-0.0006310689 -0.00050894412 0.0015)

Time = 0.0105

Courant Number mean: 0.24271461 max: 0.59846713
smoothSolver:  Solving for Ux, Initial residual = 0.0048886529, Final residual = 7.3094154e-09, No Iterations 10
smoothSolver:  Solving for Uy, Initial residual = 0.0048890218, Final residual = 7.2765181e-09, No Iterations 10
smoothSolver:  Solving for Uz, Initial residual = 0.0029813027, Final residual = 8.8648602e-09, No Iterations 10
GAMG:  Solving for p, Initial residual = 0.00047030725, Final residual = 8.3123561e-06, No Iterations 1000
GAMG:  Solving for p, Initial residual = 2.9613314e-05, Final residual = 9.9322435e-07, No Iterations 512
time step continuity errors : sum local = 5.3975807e-09, global = 3.8026997e-10, cumulative = -2.7487948e-08
GAMG:  Solving for p, Initial residual = 0.00022261383, Final residual = 5.2092858e-06, No Iterations 1000
GAMG:  Solving for p, Initial residual = 1.7341746e-05, Final residual = 9.9638604e-07, No Iterations 392
time step continuity errors : sum local = 5.4688533e-09, global = -3.8238971e-10, cumulative = -2.7870338e-08
ExecutionTime = 336.13 s  ClockTime = 337 s

fieldMinMax minmaxdomain output:
    min(p) = 0 at location (-0.000525 0 0.216)
    max(p) = 19.754963 at location (0.00014395118 -0.0014503614 0.0015)
    min(U) = (-0.0073853089 -0.071042892 1.3379356) at location (0.00010410184 0.0011123239 0.0015)
    max(U) = (0.045625732 0.036437933 1.4576352) at location (-0.0006310689 -0.00050894412 0.0015)

Time = 0.011

Courant Number mean: 0.2427612 max: 0.59856383
smoothSolver:  Solving for Ux, Initial residual = 0.0045594018, Final residual = 6.610909e-09, No Iterations 10
smoothSolver:  Solving for Uy, Initial residual = 0.0045597417, Final residual = 6.5639377e-09, No Iterations 10
smoothSolver:  Solving for Uz, Initial residual = 0.0026811635, Final residual = 8.011407e-09, No Iterations 10
GAMG:  Solving for p, Initial residual = 0.00041879282, Final residual = 7.481884e-06, No Iterations 1000
GAMG:  Solving for p, Initial residual = 2.7458549e-05, Final residual = 9.9446462e-07, No Iterations 486
time step continuity errors : sum local = 5.3782093e-09, global = 3.7847256e-10, cumulative = -2.7491865e-08
GAMG:  Solving for p, Initial residual = 0.00020469695, Final residual = 4.6782998e-06, No Iterations 1000
GAMG:  Solving for p, Initial residual = 1.5812049e-05, Final residual = 9.9847893e-07, No Iterations 366
time step continuity errors : sum local = 5.4482561e-09, global = -3.80415e-10, cumulative = -2.787228e-08
ExecutionTime = 348.56 s  ClockTime = 349 s

fieldMinMax minmaxdomain output:
    min(p) = 0 at location (-0.000525 0 0.216)
    max(p) = 19.642628 at location (0.00014395118 -0.0014503614 0.0015)
    min(U) = (-0.0073875755 -0.071063112 1.3380473) at location (0.00010410184 0.0011123239 0.0015)
    max(U) = (0.045649619 0.036458185 1.4584463) at location (-0.0006310689 -0.00050894412 0.0015)

Time = 0.0115

Courant Number mean: 0.24280358 max: 0.59865249
smoothSolver:  Solving for Ux, Initial residual = 0.0042135749, Final residual = 6.0346343e-09, No Iterations 10
smoothSolver:  Solving for Uy, Initial residual = 0.0042138485, Final residual = 5.9524717e-09, No Iterations 10
smoothSolver:  Solving for Uz, Initial residual = 0.0024151997, Final residual = 7.2428089e-09, No Iterations 10
GAMG:  Solving for p, Initial residual = 0.00036901541, Final residual = 6.7457465e-06, No Iterations 1000
GAMG:  Solving for p, Initial residual = 2.5635826e-05, Final residual = 9.9765149e-07, No Iterations 460
time step continuity errors : sum local = 5.3720162e-09, global = 3.7759607e-10, cumulative = -2.7494684e-08
GAMG:  Solving for p, Initial residual = 0.00018882549, Final residual = 4.2090683e-06, No Iterations 1000
GAMG:  Solving for p, Initial residual = 1.4735344e-05, Final residual = 9.9404379e-07, No Iterations 342
time step continuity errors : sum local = 5.395604e-09, global = -3.7625679e-10, cumulative = -2.7870941e-08
ExecutionTime = 361.43 s  ClockTime = 362 s

fieldMinMax minmaxdomain output:
    min(p) = 0 at location (-0.000525 0 0.216)
    max(p) = 19.542482 at location (0.00014395118 -0.0014503614 0.0015)
    min(U) = (-0.0073895742 -0.071082057 1.3380819) at location (0.00010410184 0.0011123239 0.0015)
    max(U) = (0.045675562 0.036479879 1.4590838) at location (-0.0006310689 -0.00050894412 0.0015)

Time = 0.012

Courant Number mean: 0.24284222 max: 0.59873462
smoothSolver:  Solving for Ux, Initial residual = 0.003861974, Final residual = 5.4935787e-09, No Iterations 10
smoothSolver:  Solving for Uy, Initial residual = 0.0038621543, Final residual = 5.4144713e-09, No Iterations 10
smoothSolver:  Solving for Uz, Initial residual = 0.0021780396, Final residual = 6.5508944e-09, No Iterations 10
GAMG:  Solving for p, Initial residual = 0.00032979291, Final residual = 6.0912077e-06, No Iterations 1000
GAMG:  Solving for p, Initial residual = 2.3808468e-05, Final residual = 9.9433494e-07, No Iterations 436
time step continuity errors : sum local = 5.3332457e-09, global = 3.7447378e-10, cumulative = -2.7496467e-08
GAMG:  Solving for p, Initial residual = 0.00017226678, Final residual = 3.7931924e-06, No Iterations 1000
GAMG:  Solving for p, Initial residual = 1.3707948e-05, Final residual = 9.9952167e-07, No Iterations 316
time step continuity errors : sum local = 5.3998168e-09, global = -3.7600801e-10, cumulative = -2.7872475e-08
ExecutionTime = 374.13 s  ClockTime = 375 s

fieldMinMax minmaxdomain output:
    min(p) = 0 at location (-0.000525 0 0.216)
    max(p) = 19.452994 at location (0.00014395118 -0.0014503614 0.0015)
    min(U) = (-0.0073913294 -0.071099756 1.3380708) at location (0.00010410184 0.0011123239 0.0015)
    max(U) = (0.045702464 0.036502146 1.4595862) at location (-0.0006310689 -0.00050894412 0.0015)

Time = 0.0125

Courant Number mean: 0.24287745 max: 0.5988106
smoothSolver:  Solving for Ux, Initial residual = 0.0035152111, Final residual = 4.9638939e-09, No Iterations 10
smoothSolver:  Solving for Uy, Initial residual = 0.0035155692, Final residual = 4.9113343e-09, No Iterations 10
smoothSolver:  Solving for Uz, Initial residual = 0.0019666733, Final residual = 5.9299208e-09, No Iterations 10
GAMG:  Solving for p, Initial residual = 0.00029619975, Final residual = 5.5065922e-06, No Iterations 1000
GAMG:  Solving for p, Initial residual = 2.1951295e-05, Final residual = 9.923867e-07, No Iterations 412
time step continuity errors : sum local = 5.3040385e-09, global = 3.7202095e-10, cumulative = -2.7500454e-08
GAMG:  Solving for p, Initial residual = 0.00015722907, Final residual = 3.4226744e-06, No Iterations 1000
GAMG:  Solving for p, Initial residual = 1.2694667e-05, Final residual = 9.9791537e-07, No Iterations 292
time step continuity errors : sum local = 5.3683151e-09, global = -3.7332401e-10, cumulative = -2.7873778e-08
ExecutionTime = 385.39 s  ClockTime = 386 s

fieldMinMax minmaxdomain output:
    min(p) = 0 at location (-0.000525 0 0.216)
    max(p) = 19.372875 at location (0.00014395118 -0.0014503614 0.0015)
    min(U) = (-0.0073928598 -0.071116128 1.3380367) at location (0.00010410184 0.0011123239 0.0015)
    max(U) = (0.045729255 0.036524147 1.4599849) at location (-0.0006310689 -0.00050894412 0.0015)

Time = 0.013

Courant Number mean: 0.24290961 max: 0.59888034
smoothSolver:  Solving for Ux, Initial residual = 0.0031833766, Final residual = 4.4738181e-09, No Iterations 10
smoothSolver:  Solving for Uy, Initial residual = 0.0031838794, Final residual = 4.4278538e-09, No Iterations 10
smoothSolver:  Solving for Uz, Initial residual = 0.0017783198, Final residual = 5.3702557e-09, No Iterations 10
GAMG:  Solving for p, Initial residual = 0.00026949035, Final residual = 4.9837546e-06, No Iterations 1000
GAMG:  Solving for p, Initial residual = 2.0111002e-05, Final residual = 9.9174597e-07, No Iterations 388
time step continuity errors : sum local = 5.283765e-09, global = 3.7019543e-10, cumulative = -2.7503583e-08
GAMG:  Solving for p, Initial residual = 0.00014413654, Final residual = 3.0920662e-06, No Iterations 1000
GAMG:  Solving for p, Initial residual = 1.1693078e-05, Final residual = 9.9749025e-07, No Iterations 268
time step continuity errors : sum local = 5.345576e-09, global = -3.7125223e-10, cumulative = -2.7874835e-08
ExecutionTime = 396.73 s  ClockTime = 398 s

fieldMinMax minmaxdomain output:
    min(p) = 0 at location (-0.000525 0 0.216)
    max(p) = 19.301011 at location (0.00014395118 -0.0014503614 0.0015)
    min(U) = (-0.0073941824 -0.071131067 1.3379949) at location (0.00010410184 0.0011123239 0.0015)
    max(U) = (0.045755014 0.036545172 1.4603047) at location (-0.0006310689 -0.00050894412 0.0015)

Time = 0.0135

Courant Number mean: 0.24293898 max: 0.59894358
smoothSolver:  Solving for Ux, Initial residual = 0.0028779781, Final residual = 4.0517857e-09, No Iterations 10
smoothSolver:  Solving for Uy, Initial residual = 0.0028783118, Final residual = 3.9921147e-09, No Iterations 10
smoothSolver:  Solving for Uz, Initial residual = 0.0016099974, Final residual = 4.864336e-09, No Iterations 10
GAMG:  Solving for p, Initial residual = 0.00024384713, Final residual = 4.5146324e-06, No Iterations 1000
GAMG:  Solving for p, Initial residual = 1.8321331e-05, Final residual = 9.9216617e-07, No Iterations 364
time step continuity errors : sum local = 5.2708016e-09, global = 3.6888148e-10, cumulative = -2.7505953e-08
GAMG:  Solving for p, Initial residual = 0.00013159175, Final residual = 2.7958957e-06, No Iterations 1000
GAMG:  Solving for p, Initial residual = 1.0725965e-05, Final residual = 9.9794169e-07, No Iterations 244
time step continuity errors : sum local = 5.3295843e-09, global = -3.6965027e-10, cumulative = -2.7875604e-08
ExecutionTime = 408.35 s  ClockTime = 409 s

fieldMinMax minmaxdomain output:
    min(p) = 0 at location (-0.000525 0 0.216)
    max(p) = 19.23645 at location (0.00014395118 -0.0014503614 0.0015)
    min(U) = (-0.0073953142 -0.071144494 1.3379549) at location (0.00010410184 0.0011123239 0.0015)
    max(U) = (0.045779035 0.036564682 1.4605649) at location (-0.0006310689 -0.00050894412 0.0015)

Time = 0.014

Courant Number mean: 0.24296577 max: 0.59900013
smoothSolver:  Solving for Ux, Initial residual = 0.0026257988, Final residual = 3.6769578e-09, No Iterations 10
smoothSolver:  Solving for Uy, Initial residual = 0.0026261891, Final residual = 3.6136394e-09, No Iterations 10
smoothSolver:  Solving for Uz, Initial residual = 0.0014586197, Final residual = 4.4075414e-09, No Iterations 10
GAMG:  Solving for p, Initial residual = 0.00021972701, Final residual = 4.0926625e-06, No Iterations 1000
GAMG:  Solving for p, Initial residual = 1.6704685e-05, Final residual = 9.9344927e-07, No Iterations 340
time step continuity errors : sum local = 5.26387e-09, global = 3.6798894e-10, cumulative = -2.7507615e-08
GAMG:  Solving for p, Initial residual = 0.00012022346, Final residual = 2.5300064e-06, No Iterations 1000
GAMG:  Solving for p, Initial residual = 9.8279536e-06, Final residual = 9.9914155e-07, No Iterations 220
time step continuity errors : sum local = 5.319387e-09, global = -3.6845008e-10, cumulative = -2.7876065e-08
ExecutionTime = 419.51 s  ClockTime = 420 s

fieldMinMax minmaxdomain output:
    min(p) = 0 at location (-0.000525 0 0.216)
    max(p) = 19.178368 at location (0.00014395118 -0.0014503614 0.0015)
    min(U) = (-0.0073962729 -0.071156371 1.3379222) at location (0.00010410184 0.0011123239 0.0015)
    max(U) = (0.045800833 0.036582316 1.46078) at location (-0.0006310689 -0.00050894412 0.0015)

Time = 0.0145

Courant Number mean: 0.24299025 max: 0.59904997
smoothSolver:  Solving for Ux, Initial residual = 0.0023937015, Final residual = 3.3246678e-09, No Iterations 10
smoothSolver:  Solving for Uy, Initial residual = 0.0023940768, Final residual = 3.2721106e-09, No Iterations 10
smoothSolver:  Solving for Uz, Initial residual = 0.0013220551, Final residual = 3.9955272e-09, No Iterations 10
GAMG:  Solving for p, Initial residual = 0.00019936373, Final residual = 3.7124523e-06, No Iterations 1000
GAMG:  Solving for p, Initial residual = 1.5129111e-05, Final residual = 9.9548653e-07, No Iterations 316
time step continuity errors : sum local = 5.2622021e-09, global = 3.6746362e-10, cumulative = -2.7508601e-08
GAMG:  Solving for p, Initial residual = 0.00010967766, Final residual = 2.2907922e-06, No Iterations 1000
GAMG:  Solving for p, Initial residual = 8.9372643e-06, Final residual = 9.9261259e-07, No Iterations 198
time step continuity errors : sum local = 5.269744e-09, global = -3.6458479e-10, cumulative = -2.7873186e-08
ExecutionTime = 430.23 s  ClockTime = 431 s

fieldMinMax minmaxdomain output:
    min(p) = 0 at location (-0.000525 0 0.216)
    max(p) = 19.126052 at location (0.00014395118 -0.0014503614 0.0015)
    min(U) = (-0.007397077 -0.071166715 1.3378989) at location (0.00010410184 0.0011123239 0.0015)
    max(U) = (0.045820141 0.036597883 1.4609609) at location (-0.0006310689 -0.00050894412 0.0015)

Time = 0.015

Courant Number mean: 0.24301263 max: 0.59909326
smoothSolver:  Solving for Ux, Initial residual = 0.0021682157, Final residual = 2.9996507e-09, No Iterations 10
smoothSolver:  Solving for Uy, Initial residual = 0.002168574, Final residual = 2.952246e-09, No Iterations 10
smoothSolver:  Solving for Uz, Initial residual = 0.0011988227, Final residual = 3.6231923e-09, No Iterations 10
GAMG:  Solving for p, Initial residual = 0.00018378791, Final residual = 3.3697478e-06, No Iterations 1000
GAMG:  Solving for p, Initial residual = 1.3653345e-05, Final residual = 9.9830086e-07, No Iterations 292
time step continuity errors : sum local = 5.2657434e-09, global = 3.6730479e-10, cumulative = -2.7505881e-08
GAMG:  Solving for p, Initial residual = 9.9328006e-05, Final residual = 2.0754675e-06, No Iterations 1000
GAMG:  Solving for p, Initial residual = 8.0855244e-06, Final residual = 9.950051e-07, No Iterations 174
time step continuity errors : sum local = 5.2689561e-09, global = -3.6404879e-10, cumulative = -2.786993e-08
ExecutionTime = 441.49 s  ClockTime = 442 s

fieldMinMax minmaxdomain output:
    min(p) = 0 at location (-0.000525 0 0.216)
    max(p) = 19.07887 at location (0.00014395118 -0.0014503614 0.0015)
    min(U) = (-0.007397745 -0.07117559 1.3378854) at location (0.00010410184 0.0011123239 0.0015)
    max(U) = (0.04583687 0.036611334 1.4611152) at location (-0.0006310689 -0.00050894412 0.0015)

Time = 0.0155

Courant Number mean: 0.24303306 max: 0.59913033
smoothSolver:  Solving for Ux, Initial residual = 0.0019566475, Final residual = 9.7013852e-09, No Iterations 9
smoothSolver:  Solving for Uy, Initial residual = 0.001956981, Final residual = 9.5868849e-09, No Iterations 9
smoothSolver:  Solving for Uz, Initial residual = 0.0010875035, Final residual = 3.2859794e-09, No Iterations 10
GAMG:  Solving for p, Initial residual = 0.00016804731, Final residual = 3.0594017e-06, No Iterations 1000
GAMG:  Solving for p, Initial residual = 1.2286241e-05, Final residual = 9.9316308e-07, No Iterations 270
time step continuity errors : sum local = 5.2284258e-09, global = 3.6435102e-10, cumulative = -2.7505579e-08
GAMG:  Solving for p, Initial residual = 9.0031231e-05, Final residual = 1.8809148e-06, No Iterations 1000
GAMG:  Solving for p, Initial residual = 7.3002821e-06, Final residual = 9.976885e-07, No Iterations 150
time step continuity errors : sum local = 5.2709306e-09, global = -3.6370702e-10, cumulative = -2.7869286e-08
ExecutionTime = 453.98 s  ClockTime = 455 s

fieldMinMax minmaxdomain output:
    min(p) = 0 at location (-0.000525 0 0.216)
    max(p) = 19.036282 at location (0.00014395118 -0.0014503614 0.0015)
    min(U) = (-0.0073982955 -0.071183096 1.3378807) at location (0.00010410184 0.0011123239 0.0015)
    max(U) = (0.045851077 0.036622731 1.4612484) at location (-0.0006310689 -0.00050894412 0.0015)

Time = 0.016

Courant Number mean: 0.24305176 max: 0.59916164
smoothSolver:  Solving for Ux, Initial residual = 0.0017836255, Final residual = 8.7720266e-09, No Iterations 9
smoothSolver:  Solving for Uy, Initial residual = 0.0017840203, Final residual = 8.6549477e-09, No Iterations 9
smoothSolver:  Solving for Uz, Initial residual = 0.00098707959, Final residual = 9.8811058e-09, No Iterations 9
GAMG:  Solving for p, Initial residual = 0.00015350826, Final residual = 2.7784433e-06, No Iterations 1000
GAMG:  Solving for p, Initial residual = 1.1060716e-05, Final residual = 9.9669748e-07, No Iterations 246
time step continuity errors : sum local = 5.2377149e-09, global = 3.6460009e-10, cumulative = -2.7504686e-08
GAMG:  Solving for p, Initial residual = 8.2285928e-05, Final residual = 1.7046972e-06, No Iterations 1000
GAMG:  Solving for p, Initial residual = 6.5833304e-06, Final residual = 9.9209742e-07, No Iterations 128
time step continuity errors : sum local = 5.2303565e-09, global = -3.6050194e-10, cumulative = -2.7865188e-08
ExecutionTime = 466.05 s  ClockTime = 467 s

fieldMinMax minmaxdomain output:
    min(p) = 0 at location (-0.000525 0 0.216)
    max(p) = 18.997808 at location (0.00014395118 -0.0014503614 0.0015)
    min(U) = (-0.0073987458 -0.071189362 1.3378831) at location (0.00010410184 0.0011123239 0.0015)
    max(U) = (0.045862924 0.036632218 1.4613646) at location (-0.0006310689 -0.00050894412 0.0015)

Time = 0.0165

Courant Number mean: 0.24306885 max: 0.59918776
smoothSolver:  Solving for Ux, Initial residual = 0.0016243512, Final residual = 7.9449722e-09, No Iterations 9
smoothSolver:  Solving for Uy, Initial residual = 0.0016246527, Final residual = 7.8259652e-09, No Iterations 9
smoothSolver:  Solving for Uz, Initial residual = 0.00089617779, Final residual = 8.9669514e-09, No Iterations 9
GAMG:  Solving for p, Initial residual = 0.00014005051, Final residual = 2.5246265e-06, No Iterations 1000
GAMG:  Solving for p, Initial residual = 9.9783196e-06, Final residual = 9.9256724e-07, No Iterations 224
time step continuity errors : sum local = 5.2075758e-09, global = 3.6216546e-10, cumulative = -2.7503022e-08
GAMG:  Solving for p, Initial residual = 7.4788271e-05, Final residual = 1.5459667e-06, No Iterations 1000
GAMG:  Solving for p, Initial residual = 5.9432464e-06, Final residual = 9.9547039e-07, No Iterations 104
time step continuity errors : sum local = 5.2380961e-09, global = -3.6057825e-10, cumulative = -2.78636e-08
ExecutionTime = 477.07 s  ClockTime = 478 s

fieldMinMax minmaxdomain output:
    min(p) = 0 at location (-0.000525 0 0.216)
    max(p) = 18.963018 at location (0.00014395118 -0.0014503614 0.0015)
    min(U) = (-0.0073991123 -0.071194531 1.3378908) at location (0.00010410184 0.0011123239 0.0015)
    max(U) = (0.04587264 0.036639988 1.4614663) at location (-0.0006310689 -0.00050894412 0.0015)

Time = 0.017

Courant Number mean: 0.24308447 max: 0.59920931
smoothSolver:  Solving for Ux, Initial residual = 0.001471356, Final residual = 7.2083124e-09, No Iterations 9
smoothSolver:  Solving for Uy, Initial residual = 0.001471746, Final residual = 7.0990506e-09, No Iterations 9
smoothSolver:  Solving for Uz, Initial residual = 0.00081371922, Final residual = 8.1397285e-09, No Iterations 9
GAMG:  Solving for p, Initial residual = 0.0001269849, Final residual = 2.2939239e-06, No Iterations 1000
GAMG:  Solving for p, Initial residual = 8.9672254e-06, Final residual = 9.9677148e-07, No Iterations 200
time step continuity errors : sum local = 5.2219255e-09, global = 3.6278526e-10, cumulative = -2.7500815e-08
GAMG:  Solving for p, Initial residual = 6.7792742e-05, Final residual = 1.4016262e-06, No Iterations 1000
GAMG:  Solving for p, Initial residual = 5.3579591e-06, Final residual = 9.985721e-07, No Iterations 80
time step continuity errors : sum local = 5.2452618e-09, global = -3.6062208e-10, cumulative = -2.7861437e-08
ExecutionTime = 487.79 s  ClockTime = 489 s

fieldMinMax minmaxdomain output:
    min(p) = 0 at location (-0.000525 0 0.216)
    max(p) = 18.931541 at location (0.00014395118 -0.0014503614 0.0015)
    min(U) = (-0.0073994096 -0.07119875 1.3379019) at location (0.00010410184 0.0011123239 0.0015)
    max(U) = (0.045880493 0.036646261 1.4615556) at location (-0.0006310689 -0.00050894412 0.0015)

Time = 0.0175

Courant Number mean: 0.24309875 max: 0.59922691
smoothSolver:  Solving for Ux, Initial residual = 0.001328299, Final residual = 6.537328e-09, No Iterations 9
smoothSolver:  Solving for Uy, Initial residual = 0.001328601, Final residual = 6.4402974e-09, No Iterations 9
smoothSolver:  Solving for Uz, Initial residual = 0.00073898966, Final residual = 7.3902842e-09, No Iterations 9
GAMG:  Solving for p, Initial residual = 0.00011564522, Final residual = 2.0844191e-06, No Iterations 1000
GAMG:  Solving for p, Initial residual = 8.0427043e-06, Final residual = 9.927977e-07, No Iterations 178
time step continuity errors : sum local = 5.1941161e-09, global = 3.6053633e-10, cumulative = -2.7500901e-08
GAMG:  Solving for p, Initial residual = 6.1633022e-05, Final residual = 1.2708635e-06, No Iterations 1000
GAMG:  Solving for p, Initial residual = 4.8284878e-06, Final residual = 9.9338641e-07, No Iterations 58
time step continuity errors : sum local = 5.2097403e-09, global = -3.5781647e-10, cumulative = -2.7858717e-08
ExecutionTime = 498.55 s  ClockTime = 500 s

fieldMinMax minmaxdomain output:
    min(p) = 0 at location (-0.000525 0 0.216)
    max(p) = 18.903049 at location (0.00014395118 -0.0014503614 0.0015)
    min(U) = (-0.0073996505 -0.071202164 1.3379148) at location (0.00010410184 0.0011123239 0.0015)
    max(U) = (0.04588676 0.036651266 1.4616338) at location (-0.0006310689 -0.00050894412 0.0015)

Time = 0.018

Courant Number mean: 0.2431118 max: 0.59924117
smoothSolver:  Solving for Ux, Initial residual = 0.0012090638, Final residual = 5.9369772e-09, No Iterations 9
smoothSolver:  Solving for Uy, Initial residual = 0.0012093011, Final residual = 5.842356e-09, No Iterations 9
smoothSolver:  Solving for Uz, Initial residual = 0.00067134687, Final residual = 6.7105217e-09, No Iterations 9
GAMG:  Solving for p, Initial residual = 0.00010545886, Final residual = 1.8947311e-06, No Iterations 1000
GAMG:  Solving for p, Initial residual = 7.2392588e-06, Final residual = 9.9754676e-07, No Iterations 154
time step continuity errors : sum local = 5.2125631e-09, global = 3.6146244e-10, cumulative = -2.7497255e-08
GAMG:  Solving for p, Initial residual = 5.6362099e-05, Final residual = 1.1523541e-06, No Iterations 1000
GAMG:  Solving for p, Initial residual = 4.3522348e-06, Final residual = 9.9658688e-07, No Iterations 34
time step continuity errors : sum local = 5.2189675e-09, global = -3.5804414e-10, cumulative = -2.7855299e-08
ExecutionTime = 509.67 s  ClockTime = 511 s

fieldMinMax minmaxdomain output:
    min(p) = 0 at location (-0.000525 0 0.216)
    max(p) = 18.877236 at location (0.00014395118 -0.0014503614 0.0015)
    min(U) = (-0.007399846 -0.071204909 1.3379284) at location (0.00010410184 0.0011123239 0.0015)
    max(U) = (0.045891712 0.03665522 1.4617022) at location (-0.0006310689 -0.00050894412 0.0015)

Time = 0.0185

Courant Number mean: 0.24312374 max: 0.59925266
smoothSolver:  Solving for Ux, Initial residual = 0.0011044875, Final residual = 5.394203e-09, No Iterations 9
smoothSolver:  Solving for Uy, Initial residual = 0.0011048168, Final residual = 5.3048582e-09, No Iterations 9
smoothSolver:  Solving for Uz, Initial residual = 0.00061004014, Final residual = 6.094109e-09, No Iterations 9
GAMG:  Solving for p, Initial residual = 9.5660033e-05, Final residual = 1.7214981e-06, No Iterations 1000
GAMG:  Solving for p, Initial residual = 6.5373123e-06, Final residual = 9.9356105e-07, No Iterations 132
time step continuity errors : sum local = 5.1859256e-09, global = 3.5932991e-10, cumulative = -2.7495969e-08
GAMG:  Solving for p, Initial residual = 5.146999e-05, Final residual = 1.044421e-06, No Iterations 1000
GAMG:  Solving for p, Initial residual = 3.9366448e-06, Final residual = 9.9909742e-07, No Iterations 10
time step continuity errors : sum local = 5.2252122e-09, global = -3.5825664e-10, cumulative = -2.7854226e-08
ExecutionTime = 524.29 s  ClockTime = 525 s

fieldMinMax minmaxdomain output:
    min(p) = 0 at location (-0.000525 0 0.216)
    max(p) = 18.853847 at location (0.00014395118 -0.0014503614 0.0015)
    min(U) = (-0.0074000053 -0.071207109 1.3379415) at location (0.00010410184 0.0011123239 0.0015)
    max(U) = (0.045895597 0.036658326 1.4617616) at location (-0.0006310689 -0.00050894412 0.0015)

Time = 0.019

Courant Number mean: 0.24313464 max: 0.59926188
smoothSolver:  Solving for Ux, Initial residual = 0.0010050035, Final residual = 4.9054918e-09, No Iterations 9
smoothSolver:  Solving for Uy, Initial residual = 0.001005299, Final residual = 4.8254585e-09, No Iterations 9
smoothSolver:  Solving for Uz, Initial residual = 0.00055438578, Final residual = 5.5350596e-09, No Iterations 9
GAMG:  Solving for p, Initial residual = 8.7298209e-05, Final residual = 1.5642713e-06, No Iterations 1000
GAMG:  Solving for p, Initial residual = 5.8985997e-06, Final residual = 9.9803668e-07, No Iterations 108
time step continuity errors : sum local = 5.2039711e-09, global = 3.6025776e-10, cumulative = -2.7493968e-08
GAMG:  Solving for p, Initial residual = 4.697783e-05, Final residual = 9.9530629e-07, No Iterations 988
GAMG:  Solving for p, Initial residual = 3.6058786e-06, Final residual = 9.7746716e-07, No Iterations 4
time step continuity errors : sum local = 5.1059372e-09, global = -3.4971649e-10, cumulative = -2.7843685e-08
ExecutionTime = 536.44 s  ClockTime = 538 s

fieldMinMax minmaxdomain output:
    min(p) = 0 at location (-0.000525 0 0.216)
    max(p) = 18.832652 at location (0.00014395118 -0.0014503614 0.0015)
    min(U) = (-0.0074001358 -0.071208869 1.3379535) at location (0.00010410184 0.0011123239 0.0015)
    max(U) = (0.045898638 0.036660759 1.461813) at location (-0.0006310689 -0.00050894412 0.0015)

Time = 0.0195

Courant Number mean: 0.24314463 max: 0.59926927
smoothSolver:  Solving for Ux, Initial residual = 0.00091576573, Final residual = 4.4666623e-09, No Iterations 9
smoothSolver:  Solving for Uy, Initial residual = 0.0009159874, Final residual = 4.3885833e-09, No Iterations 9
smoothSolver:  Solving for Uz, Initial residual = 0.00050390037, Final residual = 5.0279778e-09, No Iterations 9
GAMG:  Solving for p, Initial residual = 8.0291112e-05, Final residual = 1.4223424e-06, No Iterations 1000
GAMG:  Solving for p, Initial residual = 5.3251054e-06, Final residual = 9.9487609e-07, No Iterations 86
time step continuity errors : sum local = 5.1826491e-09, global = 3.5855041e-10, cumulative = -2.7485134e-08
GAMG:  Solving for p, Initial residual = 4.2733412e-05, Final residual = 9.9824912e-07, No Iterations 964
GAMG:  Solving for p, Initial residual = 3.3566071e-06, Final residual = 9.7986473e-07, No Iterations 4
time step continuity errors : sum local = 5.1128326e-09, global = -3.4993187e-10, cumulative = -2.7835066e-08
ExecutionTime = 546.25 s  ClockTime = 547 s

fieldMinMax minmaxdomain output:
    min(p) = 0 at location (-0.000525 0 0.216)
    max(p) = 18.81342 at location (0.00014395118 -0.0014503614 0.0015)
    min(U) = (-0.0074002438 -0.071210281 1.3379642) at location (0.00010410184 0.0011123239 0.0015)
    max(U) = (0.045901023 0.03666267 1.4618572) at location (-0.0006310689 -0.00050894412 0.0015)

Time = 0.02

Courant Number mean: 0.24315376 max: 0.59927522
smoothSolver:  Solving for Ux, Initial residual = 0.00084031854, Final residual = 4.0698138e-09, No Iterations 9
smoothSolver:  Solving for Uy, Initial residual = 0.00084057464, Final residual = 3.9978884e-09, No Iterations 9
smoothSolver:  Solving for Uz, Initial residual = 0.00045807972, Final residual = 4.5675924e-09, No Iterations 9
GAMG:  Solving for p, Initial residual = 7.3738759e-05, Final residual = 1.2916133e-06, No Iterations 1000
GAMG:  Solving for p, Initial residual = 4.8467673e-06, Final residual = 9.9874708e-07, No Iterations 62
time step continuity errors : sum local = 5.1983933e-09, global = 3.5935943e-10, cumulative = -2.7475707e-08
GAMG:  Solving for p, Initial residual = 3.9271569e-05, Final residual = 9.9941649e-07, No Iterations 940
GAMG:  Solving for p, Initial residual = 3.1464253e-06, Final residual = 9.8071769e-07, No Iterations 4
time step continuity errors : sum local = 5.112152e-09, global = -3.4961956e-10, cumulative = -2.7825326e-08
ExecutionTime = 557.18 s  ClockTime = 558 s

fieldMinMax minmaxdomain output:
    min(p) = 0 at location (-0.000525 0 0.216)
    max(p) = 18.795977 at location (0.00014395118 -0.0014503614 0.0015)
    min(U) = (-0.0074003341 -0.071211421 1.3379732) at location (0.00010410184 0.0011123239 0.0015)
    max(U) = (0.045902906 0.036664183 1.461895) at location (-0.0006310689 -0.00050894412 0.0015)

Time = 0.0205

Courant Number mean: 0.2431621 max: 0.59928004
smoothSolver:  Solving for Ux, Initial residual = 0.00077004628, Final residual = 3.7083931e-09, No Iterations 9
smoothSolver:  Solving for Uy, Initial residual = 0.00077029968, Final residual = 3.6447925e-09, No Iterations 9
smoothSolver:  Solving for Uz, Initial residual = 0.00041643457, Final residual = 4.1498711e-09, No Iterations 9
GAMG:  Solving for p, Initial residual = 6.7621606e-05, Final residual = 1.1728273e-06, No Iterations 1000
GAMG:  Solving for p, Initial residual = 4.418992e-06, Final residual = 9.9422117e-07, No Iterations 40
time step continuity errors : sum local = 5.1708205e-09, global = 3.5726199e-10, cumulative = -2.7468064e-08
GAMG:  Solving for p, Initial residual = 3.6099613e-05, Final residual = 9.9208562e-07, No Iterations 918
GAMG:  Solving for p, Initial residual = 2.951599e-06, Final residual = 9.7339856e-07, No Iterations 4
time step continuity errors : sum local = 5.0693579e-09, global = -3.4649631e-10, cumulative = -2.7814561e-08
ExecutionTime = 566 s  ClockTime = 567 s

fieldMinMax minmaxdomain output:
    min(p) = 0 at location (-0.000525 0 0.216)
    max(p) = 18.780155 at location (0.00014395118 -0.0014503614 0.0015)
    min(U) = (-0.0074004102 -0.07121235 1.3379807) at location (0.00010410184 0.0011123239 0.0015)
    max(U) = (0.045904413 0.036665397 1.4619271) at location (-0.0006310689 -0.00050894412 0.0015)

Time = 0.021

Courant Number mean: 0.24316974 max: 0.59928397
smoothSolver:  Solving for Ux, Initial residual = 0.00070182703, Final residual = 3.3793848e-09, No Iterations 9
smoothSolver:  Solving for Uy, Initial residual = 0.00070218313, Final residual = 3.3233991e-09, No Iterations 9
smoothSolver:  Solving for Uz, Initial residual = 0.00037859329, Final residual = 3.7704082e-09, No Iterations 9
GAMG:  Solving for p, Initial residual = 6.180204e-05, Final residual = 1.0652134e-06, No Iterations 1000
GAMG:  Solving for p, Initial residual = 4.0265646e-06, Final residual = 9.9818627e-07, No Iterations 16
time step continuity errors : sum local = 5.1877596e-09, global = 3.5826031e-10, cumulative = -2.74563e-08
GAMG:  Solving for p, Initial residual = 3.2956688e-05, Final residual = 9.9274241e-07, No Iterations 894
GAMG:  Solving for p, Initial residual = 2.7793608e-06, Final residual = 9.7401404e-07, No Iterations 4
time step continuity errors : sum local = 5.0683237e-09, global = -3.461739e-10, cumulative = -2.7802474e-08
ExecutionTime = 574.45 s  ClockTime = 576 s

fieldMinMax minmaxdomain output:
    min(p) = 0 at location (-0.000525 0 0.216)
    max(p) = 18.76579 at location (0.00014395118 -0.0014503614 0.0015)
    min(U) = (-0.007400475 -0.071213116 1.3379866) at location (0.00010410184 0.0011123239 0.0015)
    max(U) = (0.045905639 0.036666387 1.4619542) at location (-0.0006310689 -0.00050894412 0.0015)

Time = 0.0215

Courant Number mean: 0.24317672 max: 0.59928721
smoothSolver:  Solving for Ux, Initial residual = 0.00063815083, Final residual = 3.0867178e-09, No Iterations 9
smoothSolver:  Solving for Uy, Initial residual = 0.00063857138, Final residual = 3.0314259e-09, No Iterations 9
smoothSolver:  Solving for Uz, Initial residual = 0.00034426294, Final residual = 3.4258443e-09, No Iterations 9
GAMG:  Solving for p, Initial residual = 5.6257606e-05, Final residual = 9.9930541e-07, No Iterations 992
GAMG:  Solving for p, Initial residual = 3.6961044e-06, Final residual = 9.8433207e-07, No Iterations 4
time step continuity errors : sum local = 5.1124556e-09, global = 3.5312251e-10, cumulative = -2.7449352e-08
GAMG:  Solving for p, Initial residual = 3.0187436e-05, Final residual = 9.9258455e-07, No Iterations 870
GAMG:  Solving for p, Initial residual = 2.6216039e-06, Final residual = 9.7388012e-07, No Iterations 4
time step continuity errors : sum local = 5.0637661e-09, global = -3.4563883e-10, cumulative = -2.779499e-08
ExecutionTime = 582.98 s  ClockTime = 584 s

fieldMinMax minmaxdomain output:
    min(p) = 0 at location (-0.000525 0 0.216)
    max(p) = 18.752756 at location (0.00014395118 -0.0014503614 0.0015)
    min(U) = (-0.0074005306 -0.071213756 1.3379913) at location (0.00010410184 0.0011123239 0.0015)
    max(U) = (0.045906658 0.036667212 1.4619772) at location (-0.0006310689 -0.00050894412 0.0015)

Time = 0.022

Courant Number mean: 0.24318311 max: 0.59928993
smoothSolver:  Solving for Ux, Initial residual = 0.00058636586, Final residual = 2.8166395e-09, No Iterations 9
smoothSolver:  Solving for Uy, Initial residual = 0.00058670179, Final residual = 2.7679232e-09, No Iterations 9
smoothSolver:  Solving for Uz, Initial residual = 0.00031305472, Final residual = 3.1130106e-09, No Iterations 9
GAMG:  Solving for p, Initial residual = 5.1367742e-05, Final residual = 9.9421818e-07, No Iterations 970
GAMG:  Solving for p, Initial residual = 3.4579836e-06, Final residual = 9.7867243e-07, No Iterations 4
time step continuity errors : sum local = 5.0800653e-09, global = 3.5073606e-10, cumulative = -2.7444254e-08
GAMG:  Solving for p, Initial residual = 2.7848257e-05, Final residual = 9.9188101e-07, No Iterations 846
GAMG:  Solving for p, Initial residual = 2.4838233e-06, Final residual = 9.9805652e-07, No Iterations 2
time step continuity errors : sum local = 5.1858608e-09, global = -3.477607e-10, cumulative = -2.7792015e-08
ExecutionTime = 591 s  ClockTime = 592 s

fieldMinMax minmaxdomain output:
    min(p) = 0 at location (-0.000525 0 0.216)
    max(p) = 18.740918 at location (0.00014395118 -0.0014503614 0.0015)
    min(U) = (-0.0074005785 -0.071214297 1.3379949) at location (0.00010410184 0.0011123239 0.0015)
    max(U) = (0.045907522 0.036667912 1.4619964) at location (-0.0006310689 -0.00050894412 0.0015)

Time = 0.0225

Courant Number mean: 0.24318895 max: 0.59929223
smoothSolver:  Solving for Ux, Initial residual = 0.00053817679, Final residual = 9.2749592e-09, No Iterations 8
smoothSolver:  Solving for Uy, Initial residual = 0.00053834929, Final residual = 9.1480837e-09, No Iterations 8
smoothSolver:  Solving for Uz, Initial residual = 0.0002846698, Final residual = 9.4255737e-09, No Iterations 8
GAMG:  Solving for p, Initial residual = 4.7131978e-05, Final residual = 9.9564866e-07, No Iterations 946
GAMG:  Solving for p, Initial residual = 3.2493138e-06, Final residual = 9.7964826e-07, No Iterations 4
time step continuity errors : sum local = 5.0824082e-09, global = 3.5071737e-10, cumulative = -2.7441298e-08
GAMG:  Solving for p, Initial residual = 2.5574035e-05, Final residual = 9.9674232e-07, No Iterations 820
GAMG:  Solving for p, Initial residual = 2.3632957e-06, Final residual = 9.9945607e-07, No Iterations 2
time step continuity errors : sum local = 5.1898357e-09, global = -3.4903732e-10, cumulative = -2.7790335e-08
ExecutionTime = 601.36 s  ClockTime = 603 s

fieldMinMax minmaxdomain output:
    min(p) = 0 at location (-0.000525 0 0.216)
    max(p) = 18.730171 at location (0.00014395118 -0.0014503614 0.0015)
    min(U) = (-0.0074006202 -0.071214761 1.3379976) at location (0.00010410184 0.0011123239 0.0015)
    max(U) = (0.04590827 0.036668518 1.4620127) at location (-0.0006310689 -0.00050894412 0.0015)

Time = 0.023

Courant Number mean: 0.2431943 max: 0.5992942
smoothSolver:  Solving for Ux, Initial residual = 0.00049155653, Final residual = 8.4657511e-09, No Iterations 8
smoothSolver:  Solving for Uy, Initial residual = 0.00049172269, Final residual = 8.3565367e-09, No Iterations 8
smoothSolver:  Solving for Uz, Initial residual = 0.00025889681, Final residual = 8.5662862e-09, No Iterations 8
GAMG:  Solving for p, Initial residual = 4.3258746e-05, Final residual = 9.9702612e-07, No Iterations 922
GAMG:  Solving for p, Initial residual = 3.0717204e-06, Final residual = 9.8064419e-07, No Iterations 4
time step continuity errors : sum local = 5.0850822e-09, global = 3.5079639e-10, cumulative = -2.7439539e-08
GAMG:  Solving for p, Initial residual = 2.3475382e-05, Final residual = 9.9284743e-07, No Iterations 796
GAMG:  Solving for p, Initial residual = 2.2540544e-06, Final residual = 9.9295491e-07, No Iterations 2
time step continuity errors : sum local = 5.1530877e-09, global = -3.4737201e-10, cumulative = -2.7786911e-08
ExecutionTime = 610.3 s  ClockTime = 612 s

fieldMinMax minmaxdomain output:
    min(p) = 0 at location (-0.000525 0 0.216)
    max(p) = 18.720413 at location (0.00014395118 -0.0014503614 0.0015)
    min(U) = (-0.0074006564 -0.071215164 1.3379996) at location (0.00010410184 0.0011123239 0.0015)
    max(U) = (0.045908926 0.03666905 1.4620263) at location (-0.0006310689 -0.00050894412 0.0015)

Time = 0.0235

Courant Number mean: 0.24319919 max: 0.59929591
smoothSolver:  Solving for Ux, Initial residual = 0.00044896109, Final residual = 7.7244051e-09, No Iterations 8
smoothSolver:  Solving for Uy, Initial residual = 0.00044909941, Final residual = 7.62881e-09, No Iterations 8
smoothSolver:  Solving for Uz, Initial residual = 0.00023548184, Final residual = 7.7851559e-09, No Iterations 8
GAMG:  Solving for p, Initial residual = 3.9835718e-05, Final residual = 9.9808292e-07, No Iterations 898
GAMG:  Solving for p, Initial residual = 2.899027e-06, Final residual = 9.8147078e-07, No Iterations 4
time step continuity errors : sum local = 5.0870923e-09, global = 3.5086835e-10, cumulative = -2.7436042e-08
GAMG:  Solving for p, Initial residual = 2.1604692e-05, Final residual = 9.9648249e-07, No Iterations 770
GAMG:  Solving for p, Initial residual = 2.1596073e-06, Final residual = 9.9420822e-07, No Iterations 2
time step continuity errors : sum local = 5.156861e-09, global = -3.4835298e-10, cumulative = -2.7784395e-08
ExecutionTime = 618.82 s  ClockTime = 620 s

fieldMinMax minmaxdomain output:
    min(p) = 0 at location (-0.000525 0 0.216)
    max(p) = 18.711547 at location (0.00014395118 -0.0014503614 0.0015)
    min(U) = (-0.0074006878 -0.071215515 1.3380011) at location (0.00010410184 0.0011123239 0.0015)
    max(U) = (0.045909507 0.036669522 1.4620378) at location (-0.0006310689 -0.00050894412 0.0015)

Time = 0.024

Courant Number mean: 0.24320366 max: 0.59929739
smoothSolver:  Solving for Ux, Initial residual = 0.00041261868, Final residual = 7.0619753e-09, No Iterations 8
smoothSolver:  Solving for Uy, Initial residual = 0.00041271313, Final residual = 6.9664904e-09, No Iterations 8
smoothSolver:  Solving for Uz, Initial residual = 0.00021416694, Final residual = 7.0754412e-09, No Iterations 8
GAMG:  Solving for p, Initial residual = 3.6812518e-05, Final residual = 9.9740113e-07, No Iterations 874
GAMG:  Solving for p, Initial residual = 2.7506374e-06, Final residual = 9.8061386e-07, No Iterations 4
time step continuity errors : sum local = 5.0805789e-09, global = 3.5040027e-10, cumulative = -2.7433995e-08
GAMG:  Solving for p, Initial residual = 1.9937412e-05, Final residual = 9.9778812e-07, No Iterations 744
GAMG:  Solving for p, Initial residual = 2.0747018e-06, Final residual = 9.9363122e-07, No Iterations 2
time step continuity errors : sum local = 5.1513802e-09, global = -3.4856848e-10, cumulative = -2.7782563e-08
ExecutionTime = 625.97 s  ClockTime = 627 s

fieldMinMax minmaxdomain output:
    min(p) = 0 at location (-0.000525 0 0.216)
    max(p) = 18.703496 at location (0.00014395118 -0.0014503614 0.0015)
    min(U) = (-0.0074007152 -0.071215822 1.3380022) at location (0.00010410184 0.0011123239 0.0015)
    max(U) = (0.045910026 0.036669941 1.4620476) at location (-0.0006310689 -0.00050894412 0.0015)

Time = 0.0245

Courant Number mean: 0.24320775 max: 0.59929869
smoothSolver:  Solving for Ux, Initial residual = 0.00037793215, Final residual = 6.4542991e-09, No Iterations 8
smoothSolver:  Solving for Uy, Initial residual = 0.00037794334, Final residual = 6.3687004e-09, No Iterations 8
smoothSolver:  Solving for Uz, Initial residual = 0.00019477269, Final residual = 6.4306632e-09, No Iterations 8
GAMG:  Solving for p, Initial residual = 3.3852172e-05, Final residual = 9.9610509e-07, No Iterations 850
GAMG:  Solving for p, Initial residual = 2.6125345e-06, Final residual = 9.7920276e-07, No Iterations 4
time step continuity errors : sum local = 5.0713768e-09, global = 3.497996e-10, cumulative = -2.7432764e-08
GAMG:  Solving for p, Initial residual = 1.8405362e-05, Final residual = 9.9781144e-07, No Iterations 718
GAMG:  Solving for p, Initial residual = 1.9942438e-06, Final residual = 9.9224138e-07, No Iterations 2
time step continuity errors : sum local = 5.1419062e-09, global = -3.4839963e-10, cumulative = -2.7781164e-08
ExecutionTime = 632.74 s  ClockTime = 634 s

fieldMinMax minmaxdomain output:
    min(p) = 0 at location (-0.000525 0 0.216)
    max(p) = 18.696184 at location (0.00014395118 -0.0014503614 0.0015)
    min(U) = (-0.0074007389 -0.071216093 1.3380031) at location (0.00010410184 0.0011123239 0.0015)
    max(U) = (0.045910489 0.036670316 1.4620559) at location (-0.0006310689 -0.00050894412 0.0015)

Time = 0.025

Courant Number mean: 0.24321149 max: 0.59929984
smoothSolver:  Solving for Ux, Initial residual = 0.00034477674, Final residual = 5.8946887e-09, No Iterations 8
smoothSolver:  Solving for Uy, Initial residual = 0.00034473706, Final residual = 5.8214326e-09, No Iterations 8
smoothSolver:  Solving for Uz, Initial residual = 0.00017716546, Final residual = 5.8444244e-09, No Iterations 8
GAMG:  Solving for p, Initial residual = 3.1174034e-05, Final residual = 9.9374775e-07, No Iterations 826
GAMG:  Solving for p, Initial residual = 2.4822927e-06, Final residual = 9.7677582e-07, No Iterations 4
time step continuity errors : sum local = 5.0570901e-09, global = 3.4888651e-10, cumulative = -2.7432277e-08
GAMG:  Solving for p, Initial residual = 1.6961342e-05, Final residual = 9.9599968e-07, No Iterations 692
GAMG:  Solving for p, Initial residual = 1.9183479e-06, Final residual = 9.8935574e-07, No Iterations 2
time step continuity errors : sum local = 5.1248921e-09, global = -3.4764559e-10, cumulative = -2.7779923e-08
ExecutionTime = 639.46 s  ClockTime = 641 s

fieldMinMax minmaxdomain output:
    min(p) = 0 at location (-0.000525 0 0.216)
    max(p) = 18.689542 at location (0.00014395118 -0.0014503614 0.0015)
    min(U) = (-0.0074007594 -0.071216331 1.3380039) at location (0.00010410184 0.0011123239 0.0015)
    max(U) = (0.045910902 0.036670649 1.4620629) at location (-0.0006310689 -0.00050894412 0.0015)

Time = 0.0255

Courant Number mean: 0.24321492 max: 0.59930084
smoothSolver:  Solving for Ux, Initial residual = 0.00031590277, Final residual = 5.3873765e-09, No Iterations 8
smoothSolver:  Solving for Uy, Initial residual = 0.00031579539, Final residual = 5.3171303e-09, No Iterations 8
smoothSolver:  Solving for Uz, Initial residual = 0.00016114766, Final residual = 5.3113834e-09, No Iterations 8
GAMG:  Solving for p, Initial residual = 2.8641979e-05, Final residual = 9.9869609e-07, No Iterations 800
GAMG:  Solving for p, Initial residual = 2.3680676e-06, Final residual = 9.815967e-07, No Iterations 4
time step continuity errors : sum local = 5.0804728e-09, global = 3.5055491e-10, cumulative = -2.7429368e-08
GAMG:  Solving for p, Initial residual = 1.5640221e-05, Final residual = 9.9153222e-07, No Iterations 666
GAMG:  Solving for p, Initial residual = 1.8492021e-06, Final residual = 9.8410741e-07, No Iterations 2
time step continuity errors : sum local = 5.0958329e-09, global = -3.4601006e-10, cumulative = -2.7775378e-08
ExecutionTime = 646.55 s  ClockTime = 648 s

fieldMinMax minmaxdomain output:
    min(p) = 0 at location (-0.000525 0 0.216)
    max(p) = 18.683507 at location (0.00014395118 -0.0014503614 0.0015)
    min(U) = (-0.0074007771 -0.071216539 1.3380046) at location (0.00010410184 0.0011123239 0.0015)
    max(U) = (0.045911267 0.036670943 1.462069) at location (-0.0006310689 -0.00050894412 0.0015)

Time = 0.026

Courant Number mean: 0.24321805 max: 0.59930172
smoothSolver:  Solving for Ux, Initial residual = 0.0002893466, Final residual = 4.9257053e-09, No Iterations 8
smoothSolver:  Solving for Uy, Initial residual = 0.00028917861, Final residual = 4.8608142e-09, No Iterations 8
smoothSolver:  Solving for Uz, Initial residual = 0.00014656668, Final residual = 4.8271182e-09, No Iterations 8
GAMG:  Solving for p, Initial residual = 2.6383444e-05, Final residual = 9.9375307e-07, No Iterations 776
GAMG:  Solving for p, Initial residual = 2.2583915e-06, Final residual = 9.9511481e-07, No Iterations 2
time step continuity errors : sum local = 5.1489817e-09, global = 3.5164383e-10, cumulative = -2.7423734e-08
GAMG:  Solving for p, Initial residual = 1.4489256e-05, Final residual = 9.9294578e-07, No Iterations 638
GAMG:  Solving for p, Initial residual = 1.7858321e-06, Final residual = 9.8489742e-07, No Iterations 2
time step continuity errors : sum local = 5.0982159e-09, global = -3.4640941e-10, cumulative = -2.7770143e-08
ExecutionTime = 653.67 s  ClockTime = 655 s

fieldMinMax minmaxdomain output:
    min(p) = 0 at location (-0.000525 0 0.216)
    max(p) = 18.678023 at location (0.0014503614 -0.00014395118 0.0015)
    min(U) = (-0.0074007922 -0.071216721 1.3380051) at location (0.00010410184 0.0011123239 0.0015)
    max(U) = (0.04591159 0.036671202 1.4620743) at location (-0.0006310689 -0.00050894412 0.0015)

Time = 0.0265

Courant Number mean: 0.24322092 max: 0.59930248
smoothSolver:  Solving for Ux, Initial residual = 0.00026455672, Final residual = 4.5008445e-09, No Iterations 8
smoothSolver:  Solving for Uy, Initial residual = 0.00026438105, Final residual = 4.4455901e-09, No Iterations 8
smoothSolver:  Solving for Uz, Initial residual = 0.00013331326, Final residual = 4.3870832e-09, No Iterations 8
GAMG:  Solving for p, Initial residual = 2.4368739e-05, Final residual = 9.9480243e-07, No Iterations 750
GAMG:  Solving for p, Initial residual = 2.1598479e-06, Final residual = 9.9407034e-07, No Iterations 2
time step continuity errors : sum local = 5.1422507e-09, global = 3.520482e-10, cumulative = -2.7418095e-08
GAMG:  Solving for p, Initial residual = 1.3402674e-05, Final residual = 9.9937034e-07, No Iterations 608
GAMG:  Solving for p, Initial residual = 1.7347719e-06, Final residual = 9.9089892e-07, No Iterations 2
time step continuity errors : sum local = 5.1277131e-09, global = -3.485132e-10, cumulative = -2.7766608e-08
ExecutionTime = 660.43 s  ClockTime = 662 s

fieldMinMax minmaxdomain output:
    min(p) = 0 at location (-0.000525 0 0.216)
    max(p) = 18.67304 at location (0.0014503614 -0.00014395118 0.0015)
    min(U) = (-0.0074008052 -0.07121688 1.3380057) at location (0.00010410184 0.0011123239 0.0015)
    max(U) = (0.045911871 0.036671429 1.4620788) at location (-0.0006310689 -0.00050894412 0.0015)

Time = 0.027

Courant Number mean: 0.24322354 max: 0.59930315
smoothSolver:  Solving for Ux, Initial residual = 0.00024179104, Final residual = 4.1101716e-09, No Iterations 8
smoothSolver:  Solving for Uy, Initial residual = 0.00024161692, Final residual = 4.0628806e-09, No Iterations 8
smoothSolver:  Solving for Uz, Initial residual = 0.00012127129, Final residual = 3.9867329e-09, No Iterations 8
GAMG:  Solving for p, Initial residual = 2.2461571e-05, Final residual = 9.936033e-07, No Iterations 724
GAMG:  Solving for p, Initial residual = 2.0718746e-06, Final residual = 9.9118749e-07, No Iterations 2
time step continuity errors : sum local = 5.1261324e-09, global = 3.5169828e-10, cumulative = -2.741491e-08
GAMG:  Solving for p, Initial residual = 1.2381042e-05, Final residual = 9.9406141e-07, No Iterations 580
GAMG:  Solving for p, Initial residual = 1.6816997e-06, Final residual = 9.8539226e-07, No Iterations 2
time step continuity errors : sum local = 5.0977951e-09, global = -3.4650483e-10, cumulative = -2.7761415e-08
ExecutionTime = 667.59 s  ClockTime = 669 s

fieldMinMax minmaxdomain output:
    min(p) = 0 at location (-0.000525 0 0.216)
    max(p) = 18.668518 at location (0.0014503614 -0.00014395118 0.0015)
    min(U) = (-0.0074008162 -0.071217017 1.3380062) at location (0.00010410184 0.0011123239 0.0015)
    max(U) = (0.045912116 0.036671625 1.4620828) at location (-0.0006310689 -0.00050894412 0.0015)

Time = 0.0275

Courant Number mean: 0.24322594 max: 0.59930372
smoothSolver:  Solving for Ux, Initial residual = 0.00022178281, Final residual = 3.7587613e-09, No Iterations 8
smoothSolver:  Solving for Uy, Initial residual = 0.00022163908, Final residual = 3.7136638e-09, No Iterations 8
smoothSolver:  Solving for Uz, Initial residual = 0.00011030606, Final residual = 3.6228946e-09, No Iterations 8
GAMG:  Solving for p, Initial residual = 2.07356e-05, Final residual = 9.9287951e-07, No Iterations 698
GAMG:  Solving for p, Initial residual = 1.9889094e-06, Final residual = 9.8903714e-07, No Iterations 2
time step continuity errors : sum local = 5.1139097e-09, global = 3.5157948e-10, cumulative = -2.7409835e-08
GAMG:  Solving for p, Initial residual = 1.148853e-05, Final residual = 9.9730425e-07, No Iterations 550
GAMG:  Solving for p, Initial residual = 1.6391428e-06, Final residual = 9.8810266e-07, No Iterations 2
time step continuity errors : sum local = 5.1105153e-09, global = -3.4710686e-10, cumulative = -2.7756942e-08
ExecutionTime = 674 s  ClockTime = 675 s

fieldMinMax minmaxdomain output:
    min(p) = 0 at location (-0.000525 0 0.216)
[...]
smoothSolver:  Solving for Ux, Initial residual = 5.7942782e-06, Final residual = 4.7571894e-09, No Iterations 5
smoothSolver:  Solving for Uy, Initial residual = 5.548911e-06, Final residual = 4.3234711e-09, No Iterations 5
smoothSolver:  Solving for Uz, Initial residual = 5.9472305e-07, Final residual = 7.7893802e-09, No Iterations 3
GAMG:  Solving for p, Initial residual = 5.3504885e-06, Final residual = 9.9837305e-07, No Iterations 436
GAMG:  Solving for p, Initial residual = 1.2887119e-06, Final residual = 9.9298192e-07, No Iterations 2
time step continuity errors : sum local = 5.1217578e-09, global = 3.6218537e-10, cumulative = -2.4595649e-08
GAMG:  Solving for p, Initial residual = 2.0491208e-06, Final residual = 9.9213329e-07, No Iterations 190
GAMG:  Solving for p, Initial residual = 1.0326584e-06, Final residual = 9.8344736e-07, No Iterations 2
time step continuity errors : sum local = 5.0727109e-09, global = -3.5117092e-10, cumulative = -2.494682e-08
ExecutionTime = 1424.14 s  ClockTime = 1427 s

fieldMinMax minmaxdomain output:
    min(p) = 0 at location (-0.000525 0 0.216)
    max(p) = 18.623615 at location (0.00014395118 0.0014503614 0.0015)
    min(U) = (-0.007400883 -0.071217847 1.338011) at location (0.00010410184 0.0011123239 0.0015)
    max(U) = (0.045913569 0.03667279 1.4621097) at location (-0.0006310689 -0.00050894412 0.0015)

Time = 0.194

Courant Number mean: 0.24325131 max: 0.59930721
smoothSolver:  Solving for Ux, Initial residual = 5.7795214e-06, Final residual = 4.7437173e-09, No Iterations 5
smoothSolver:  Solving for Uy, Initial residual = 5.5317427e-06, Final residual = 4.3076748e-09, No Iterations 5
smoothSolver:  Solving for Uz, Initial residual = 5.9249499e-07, Final residual = 7.7597579e-09, No Iterations 3
GAMG:  Solving for p, Initial residual = 5.33839e-06, Final residual = 9.94847e-07, No Iterations 436
GAMG:  Solving for p, Initial residual = 1.2840433e-06, Final residual = 9.8922981e-07, No Iterations 2
time step continuity errors : sum local = 5.1031738e-09, global = -3.6080892e-10, cumulative = -2.5307629e-08
GAMG:  Solving for p, Initial residual = 2.0451061e-06, Final residual = 9.9786821e-07, No Iterations 188
GAMG:  Solving for p, Initial residual = 1.0378682e-06, Final residual = 9.8917091e-07, No Iterations 2
time step continuity errors : sum local = 5.10271e-09, global = 3.5304223e-10, cumulative = -2.4954586e-08
ExecutionTime = 1427.66 s  ClockTime = 1430 s

fieldMinMax minmaxdomain output:
    min(p) = 0 at location (-0.000525 0 0.216)
    max(p) = 18.624814 at location (0.00014395118 -0.0014503614 0.0015)
    min(U) = (-0.007400883 -0.071217847 1.338011) at location (0.00010410184 0.0011123239 0.0015)
    max(U) = (0.045913569 0.03667279 1.4621097) at location (-0.0006310689 -0.00050894412 0.0015)

Time = 0.1945

Courant Number mean: 0.24325138 max: 0.59930721
smoothSolver:  Solving for Ux, Initial residual = 5.7759911e-06, Final residual = 4.7379725e-09, No Iterations 5
smoothSolver:  Solving for Uy, Initial residual = 5.5269453e-06, Final residual = 4.2999772e-09, No Iterations 5
smoothSolver:  Solving for Uz, Initial residual = 5.9145275e-07, Final residual = 7.7455815e-09, No Iterations 3
GAMG:  Solving for p, Initial residual = 5.347298e-06, Final residual = 9.9498596e-07, No Iterations 436
GAMG:  Solving for p, Initial residual = 1.2846464e-06, Final residual = 9.8960757e-07, No Iterations 2
time step continuity errors : sum local = 5.1043543e-09, global = 3.6081027e-10, cumulative = -2.4593776e-08
GAMG:  Solving for p, Initial residual = 2.0499418e-06, Final residual = 9.9949577e-07, No Iterations 188
GAMG:  Solving for p, Initial residual = 1.0394617e-06, Final residual = 9.9070925e-07, No Iterations 2
time step continuity errors : sum local = 5.1101681e-09, global = -3.533599e-10, cumulative = -2.4947136e-08
ExecutionTime = 1431.22 s  ClockTime = 1434 s

fieldMinMax minmaxdomain output:
    min(p) = 0 at location (-0.000525 0 0.216)
    max(p) = 18.623617 at location (0.00014395118 0.0014503614 0.0015)
    min(U) = (-0.007400883 -0.071217847 1.338011) at location (0.00010410184 0.0011123239 0.0015)
    max(U) = (0.045913569 0.03667279 1.4621097) at location (-0.0006310689 -0.00050894412 0.0015)

Time = 0.195

Courant Number mean: 0.24325131 max: 0.59930721
smoothSolver:  Solving for Ux, Initial residual = 5.7820973e-06, Final residual = 4.7405293e-09, No Iterations 5
smoothSolver:  Solving for Uy, Initial residual = 5.5311546e-06, Final residual = 4.2996394e-09, No Iterations 5
smoothSolver:  Solving for Uz, Initial residual = 5.9127478e-07, Final residual = 7.743057e-09, No Iterations 3
GAMG:  Solving for p, Initial residual = 5.360014e-06, Final residual = 9.9583821e-07, No Iterations 436
GAMG:  Solving for p, Initial residual = 1.2856509e-06, Final residual = 9.9020936e-07, No Iterations 2
time step continuity errors : sum local = 5.1082273e-09, global = -3.6100491e-10, cumulative = -2.5308141e-08
GAMG:  Solving for p, Initial residual = 2.0553591e-06, Final residual = 9.927697e-07, No Iterations 190
GAMG:  Solving for p, Initial residual = 1.0333712e-06, Final residual = 9.8409547e-07, No Iterations 2
time step continuity errors : sum local = 5.0765272e-09, global = 3.5088986e-10, cumulative = -2.4957251e-08
ExecutionTime = 1434.84 s  ClockTime = 1437 s

fieldMinMax minmaxdomain output:
    min(p) = 0 at location (-0.000525 0 0.216)
    max(p) = 18.624811 at location (0.00014395118 -0.0014503614 0.0015)
    min(U) = (-0.007400883 -0.071217847 1.338011) at location (0.00010410184 0.0011123239 0.0015)
    max(U) = (0.045913569 0.03667279 1.4621097) at location (-0.0006310689 -0.00050894412 0.0015)

Time = 0.1955

Courant Number mean: 0.24325138 max: 0.59930721
smoothSolver:  Solving for Ux, Initial residual = 5.7646162e-06, Final residual = 4.7255822e-09, No Iterations 5
smoothSolver:  Solving for Uy, Initial residual = 5.5114533e-06, Final residual = 4.2821473e-09, No Iterations 5
smoothSolver:  Solving for Uz, Initial residual = 5.8865015e-07, Final residual = 7.7083267e-09, No Iterations 3
GAMG:  Solving for p, Initial residual = 5.3442345e-06, Final residual = 9.9990656e-07, No Iterations 434
GAMG:  Solving for p, Initial residual = 1.287596e-06, Final residual = 9.9446045e-07, No Iterations 2
time step continuity errors : sum local = 5.1293883e-09, global = 3.6242911e-10, cumulative = -2.4594822e-08
GAMG:  Solving for p, Initial residual = 2.043436e-06, Final residual = 9.9233485e-07, No Iterations 188
GAMG:  Solving for p, Initial residual = 1.0323134e-06, Final residual = 9.8359278e-07, No Iterations 2
time step continuity errors : sum local = 5.0734624e-09, global = -3.5042966e-10, cumulative = -2.4945252e-08
ExecutionTime = 1438.44 s  ClockTime = 1441 s

fieldMinMax minmaxdomain output:
    min(p) = 0 at location (-0.000525 0 0.216)
    max(p) = 18.623621 at location (0.00014395118 0.0014503614 0.0015)
    min(U) = (-0.007400883 -0.071217847 1.338011) at location (0.00010410184 0.0011123239 0.0015)
    max(U) = (0.045913569 0.03667279 1.4621097) at location (-0.0006310689 -0.00050894412 0.0015)

Time = 0.196

Courant Number mean: 0.24325131 max: 0.59930721
smoothSolver:  Solving for Ux, Initial residual = 5.7573053e-06, Final residual = 4.7171726e-09, No Iterations 5
smoothSolver:  Solving for Uy, Initial residual = 5.5029354e-06, Final residual = 4.2722993e-09, No Iterations 5
smoothSolver:  Solving for Uz, Initial residual = 5.8733251e-07, Final residual = 7.6904674e-09, No Iterations 3
GAMG:  Solving for p, Initial residual = 5.3447887e-06, Final residual = 9.9865847e-07, No Iterations 434
GAMG:  Solving for p, Initial residual = 1.2857974e-06, Final residual = 9.9297597e-07, No Iterations 2
time step continuity errors : sum local = 5.1224958e-09, global = -3.6186271e-10, cumulative = -2.5307114e-08
GAMG:  Solving for p, Initial residual = 2.044302e-06, Final residual = 9.9202563e-07, No Iterations 188
GAMG:  Solving for p, Initial residual = 1.0320566e-06, Final residual = 9.8333402e-07, No Iterations 2
time step continuity errors : sum local = 5.0725983e-09, global = 3.5017858e-10, cumulative = -2.4956936e-08
ExecutionTime = 1441.7 s  ClockTime = 1444 s

fieldMinMax minmaxdomain output:
    min(p) = 0 at location (-0.000525 0 0.216)
    max(p) = 18.624808 at location (0.00014395118 -0.0014503614 0.0015)
    min(U) = (-0.007400883 -0.071217847 1.338011) at location (0.00010410184 0.0011123239 0.0015)
    max(U) = (0.045913569 0.03667279 1.4621097) at location (-0.0006310689 -0.00050894412 0.0015)

Time = 0.1965

Courant Number mean: 0.24325138 max: 0.59930721
smoothSolver:  Solving for Ux, Initial residual = 5.749082e-06, Final residual = 4.7082337e-09, No Iterations 5
smoothSolver:  Solving for Uy, Initial residual = 5.493481e-06, Final residual = 4.261523e-09, No Iterations 5
smoothSolver:  Solving for Uz, Initial residual = 5.8575171e-07, Final residual = 7.6694205e-09, No Iterations 3
GAMG:  Solving for p, Initial residual = 5.343817e-06, Final residual = 9.9700929e-07, No Iterations 434
GAMG:  Solving for p, Initial residual = 1.2842324e-06, Final residual = 9.9157345e-07, No Iterations 2
time step continuity errors : sum local = 5.1144987e-09, global = 3.6121833e-10, cumulative = -2.4595717e-08
GAMG:  Solving for p, Initial residual = 2.0454662e-06, Final residual = 9.9178346e-07, No Iterations 188
GAMG:  Solving for p, Initial residual = 1.0317557e-06, Final residual = 9.8302946e-07, No Iterations 2
time step continuity errors : sum local = 5.0705579e-09, global = -3.4985062e-10, cumulative = -2.4945568e-08
ExecutionTime = 1445.13 s  ClockTime = 1448 s

fieldMinMax minmaxdomain output:
    min(p) = 0 at location (-0.000525 0 0.216)
    max(p) = 18.623624 at location (0.00014395118 0.0014503614 0.0015)
    min(U) = (-0.007400883 -0.071217847 1.338011) at location (0.00010410184 0.0011123239 0.0015)
    max(U) = (0.045913569 0.03667279 1.4621097) at location (-0.0006310689 -0.00050894412 0.0015)

Time = 0.197

Courant Number mean: 0.24325131 max: 0.59930721
smoothSolver:  Solving for Ux, Initial residual = 5.7411672e-06, Final residual = 4.6997726e-09, No Iterations 5
smoothSolver:  Solving for Uy, Initial residual = 5.4841812e-06, Final residual = 4.2512404e-09, No Iterations 5
smoothSolver:  Solving for Uz, Initial residual = 5.8416985e-07, Final residual = 7.6483547e-09, No Iterations 3
GAMG:  Solving for p, Initial residual = 5.3431726e-06, Final residual = 9.9546944e-07, No Iterations 434
GAMG:  Solving for p, Initial residual = 1.2822088e-06, Final residual = 9.8980446e-07, No Iterations 2
time step continuity errors : sum local = 5.1061332e-09, global = -3.60553e-10, cumulative = -2.5306121e-08
GAMG:  Solving for p, Initial residual = 2.0457275e-06, Final residual = 9.9965406e-07, No Iterations 186
GAMG:  Solving for p, Initial residual = 1.0391474e-06, Final residual = 9.9087451e-07, No Iterations 2
time step continuity errors : sum local = 5.1114963e-09, global = 3.5244598e-10, cumulative = -2.4953675e-08
ExecutionTime = 1448.73 s  ClockTime = 1451 s

fieldMinMax minmaxdomain output:
    min(p) = 0 at location (-0.000525 0 0.216)
    max(p) = 18.624807 at location (0.00014395118 -0.0014503614 0.0015)
    min(U) = (-0.007400883 -0.071217847 1.338011) at location (0.00010410184 0.0011123239 0.0015)
    max(U) = (0.045913569 0.03667279 1.4621097) at location (-0.0006310689 -0.00050894412 0.0015)

Time = 0.1975

Courant Number mean: 0.24325138 max: 0.59930721
smoothSolver:  Solving for Ux, Initial residual = 5.7546506e-06, Final residual = 4.7075769e-09, No Iterations 5
smoothSolver:  Solving for Uy, Initial residual = 5.4961114e-06, Final residual = 4.256437e-09, No Iterations 5
smoothSolver:  Solving for Uz, Initial residual = 5.8482836e-07, Final residual = 7.6566093e-09, No Iterations 3
GAMG:  Solving for p, Initial residual = 5.3670336e-06, Final residual = 9.9833211e-07, No Iterations 434
GAMG:  Solving for p, Initial residual = 1.2863798e-06, Final residual = 9.9289135e-07, No Iterations 2
time step continuity errors : sum local = 5.1212962e-09, global = 3.6153084e-10, cumulative = -2.4592144e-08
GAMG:  Solving for p, Initial residual = 2.0564281e-06, Final residual = 9.9548816e-07, No Iterations 188
GAMG:  Solving for p, Initial residual = 1.0355915e-06, Final residual = 9.8668522e-07, No Iterations 2
time step continuity errors : sum local = 5.0894142e-09, global = -3.5076752e-10, cumulative = -2.4942912e-08
ExecutionTime = 1451.74 s  ClockTime = 1454 s

fieldMinMax minmaxdomain output:
    min(p) = 0 at location (-0.000525 0 0.216)
    max(p) = 18.623625 at location (0.00014395118 0.0014503614 0.0015)
    min(U) = (-0.007400883 -0.071217847 1.338011) at location (0.00010410184 0.0011123239 0.0015)
    max(U) = (0.045913569 0.03667279 1.4621097) at location (-0.0006310689 -0.00050894412 0.0015)

Time = 0.198

Courant Number mean: 0.24325131 max: 0.59930721
smoothSolver:  Solving for Ux, Initial residual = 5.7539912e-06, Final residual = 4.7058757e-09, No Iterations 5
smoothSolver:  Solving for Uy, Initial residual = 5.4931251e-06, Final residual = 4.251516e-09, No Iterations 5
smoothSolver:  Solving for Uz, Initial residual = 5.8391126e-07, Final residual = 7.644348e-09, No Iterations 3
GAMG:  Solving for p, Initial residual = 5.3676918e-06, Final residual = 9.9711118e-07, No Iterations 434
GAMG:  Solving for p, Initial residual = 1.2848729e-06, Final residual = 9.9143999e-07, No Iterations 2
time step continuity errors : sum local = 5.1145711e-09, global = -3.609886e-10, cumulative = -2.53039e-08
GAMG:  Solving for p, Initial residual = 2.0572548e-06, Final residual = 9.9501023e-07, No Iterations 188
GAMG:  Solving for p, Initial residual = 1.0352064e-06, Final residual = 9.8626175e-07, No Iterations 2
time step continuity errors : sum local = 5.0877002e-09, global = 3.5049386e-10, cumulative = -2.4953406e-08
ExecutionTime = 1454.86 s  ClockTime = 1457 s

fieldMinMax minmaxdomain output:
    min(p) = 0 at location (-0.000525 0 0.216)
    max(p) = 18.624804 at location (0.00014395118 -0.0014503614 0.0015)
    min(U) = (-0.007400883 -0.071217847 1.338011) at location (0.00010410184 0.0011123239 0.0015)
    max(U) = (0.045913569 0.03667279 1.4621097) at location (-0.0006310689 -0.00050894412 0.0015)

Time = 0.1985

Courant Number mean: 0.24325138 max: 0.59930721
smoothSolver:  Solving for Ux, Initial residual = 5.7435537e-06, Final residual = 4.696186e-09, No Iterations 5
smoothSolver:  Solving for Uy, Initial residual = 5.4808512e-06, Final residual = 4.239919e-09, No Iterations 5
smoothSolver:  Solving for Uz, Initial residual = 5.8213868e-07, Final residual = 7.6207382e-09, No Iterations 3
GAMG:  Solving for p, Initial residual = 5.3631197e-06, Final residual = 9.950407e-07, No Iterations 434
GAMG:  Solving for p, Initial residual = 1.2827738e-06, Final residual = 9.8961897e-07, No Iterations 2
time step continuity errors : sum local = 5.1044196e-09, global = 3.6021009e-10, cumulative = -2.4593196e-08
GAMG:  Solving for p, Initial residual = 2.056843e-06, Final residual = 9.9409062e-07, No Iterations 188
GAMG:  Solving for p, Initial residual = 1.0342198e-06, Final residual = 9.8529141e-07, No Iterations 2
time step continuity errors : sum local = 5.082226e-09, global = -3.4997192e-10, cumulative = -2.4943168e-08
ExecutionTime = 1458.17 s  ClockTime = 1461 s

fieldMinMax minmaxdomain output:
    min(p) = 0 at location (-0.000525 0 0.216)
    max(p) = 18.623628 at location (0.00014395118 0.0014503614 0.0015)
    min(U) = (-0.007400883 -0.071217847 1.338011) at location (0.00010410184 0.0011123239 0.0015)
    max(U) = (0.045913569 0.03667279 1.4621097) at location (-0.0006310689 -0.00050894412 0.0015)

Time = 0.199

Courant Number mean: 0.24325131 max: 0.59930721
smoothSolver:  Solving for Ux, Initial residual = 5.7333076e-06, Final residual = 4.6865e-09, No Iterations 5
smoothSolver:  Solving for Uy, Initial residual = 5.4691916e-06, Final residual = 4.2286712e-09, No Iterations 5
smoothSolver:  Solving for Uz, Initial residual = 5.8047366e-07, Final residual = 7.5988298e-09, No Iterations 3
GAMG:  Solving for p, Initial residual = 5.3591118e-06, Final residual = 9.93177e-07, No Iterations 434
GAMG:  Solving for p, Initial residual = 1.2802591e-06, Final residual = 9.8752828e-07, No Iterations 2
time step continuity errors : sum local = 5.0943898e-09, global = -3.5944293e-10, cumulative = -2.5302611e-08
GAMG:  Solving for p, Initial residual = 2.0555771e-06, Final residual = 9.9285784e-07, No Iterations 188
GAMG:  Solving for p, Initial residual = 1.0330006e-06, Final residual = 9.8412142e-07, No Iterations 2
time step continuity errors : sum local = 5.0766578e-09, global = 3.4944936e-10, cumulative = -2.4953162e-08
ExecutionTime = 1461.28 s  ClockTime = 1464 s

fieldMinMax minmaxdomain output:
    min(p) = 0 at location (-0.000525 0 0.216)
    max(p) = 18.6248 at location (0.00014395118 -0.0014503614 0.0015)
    min(U) = (-0.007400883 -0.071217847 1.338011) at location (0.00010410184 0.0011123239 0.0015)
    max(U) = (0.045913569 0.03667279 1.4621097) at location (-0.0006310689 -0.00050894412 0.0015)

Time = 0.1995

Courant Number mean: 0.24325138 max: 0.59930721
smoothSolver:  Solving for Ux, Initial residual = 5.7225816e-06, Final residual = 4.6763639e-09, No Iterations 5
smoothSolver:  Solving for Uy, Initial residual = 5.4570882e-06, Final residual = 4.2172827e-09, No Iterations 5
smoothSolver:  Solving for Uz, Initial residual = 5.7878752e-07, Final residual = 7.5764861e-09, No Iterations 3
GAMG:  Solving for p, Initial residual = 5.3533739e-06, Final residual = 9.9931373e-07, No Iterations 432
GAMG:  Solving for p, Initial residual = 1.2847303e-06, Final residual = 9.9383412e-07, No Iterations 2
time step continuity errors : sum local = 5.1261641e-09, global = 3.6160988e-10, cumulative = -2.4591552e-08
GAMG:  Solving for p, Initial residual = 2.0472603e-06, Final residual = 9.9445776e-07, No Iterations 186
GAMG:  Solving for p, Initial residual = 1.034019e-06, Final residual = 9.856381e-07, No Iterations 2
time step continuity errors : sum local = 5.0840146e-09, global = -3.49704e-10, cumulative = -2.4941256e-08
ExecutionTime = 1464.67 s  ClockTime = 1467 s

fieldMinMax minmaxdomain output:
    min(p) = 0 at location (-0.000525 0 0.216)
    max(p) = 18.62363 at location (0.00014395118 0.0014503614 0.0015)
    min(U) = (-0.007400883 -0.071217847 1.338011) at location (0.00010410184 0.0011123239 0.0015)
    max(U) = (0.045913569 0.03667279 1.4621097) at location (-0.0006310689 -0.00050894412 0.0015)

Time = 0.2

Courant Number mean: 0.24325131 max: 0.59930721
smoothSolver:  Solving for Ux, Initial residual = 5.7302804e-06, Final residual = 4.6797886e-09, No Iterations 5
smoothSolver:  Solving for Uy, Initial residual = 5.463637e-06, Final residual = 4.2188667e-09, No Iterations 5
smoothSolver:  Solving for Uz, Initial residual = 5.790713e-07, Final residual = 7.5795536e-09, No Iterations 3
GAMG:  Solving for p, Initial residual = 5.3672172e-06, Final residual = 9.9233524e-07, No Iterations 434
GAMG:  Solving for p, Initial residual = 1.2794948e-06, Final residual = 9.8668675e-07, No Iterations 2
time step continuity errors : sum local = 5.090048e-09, global = -3.5899647e-10, cumulative = -2.5300252e-08
GAMG:  Solving for p, Initial residual = 2.0606615e-06, Final residual = 9.9400948e-07, No Iterations 188
GAMG:  Solving for p, Initial residual = 1.0342135e-06, Final residual = 9.8524855e-07, No Iterations 2
time step continuity errors : sum local = 5.0824717e-09, global = 3.4952846e-10, cumulative = -2.4950724e-08
ExecutionTime = 1468.3 s  ClockTime = 1471 s

fieldMinMax minmaxdomain output:
    min(p) = 0 at location (-0.000525 0 0.216)
    max(p) = 18.624798 at location (0.00014395118 -0.0014503614 0.0015)
    min(U) = (-0.007400883 -0.071217847 1.338011) at location (0.00010410184 0.0011123239 0.0015)
    max(U) = (0.045913569 0.03667279 1.4621097) at location (-0.0006310689 -0.00050894412 0.0015)

End

