/*---------------------------------------------------------------------------*\
| =========                 |                                                 |
| \\      /  F ield         | OpenFOAM: The Open Source CFD Toolbox           |
|  \\    /   O peration     | Version:  3.0.x                                 |
|   \\  /    A nd           | Web:      www.OpenFOAM.org                      |
|    \\/     M anipulation  |                                                 |
\*---------------------------------------------------------------------------*/
Build  : 3.0.x-5b548639bc6e
Exec   : icoFoam
Date   : Jun 16 2016
Time   : 17:12:13
Host   : "dagobah"
PID    : 7923
Case   : /home/joegi/OpenFOAM/of_courses/2016a/of_course_tutorials/30x/101Linear_SOLVERS/pipe_icoFoam
nProcs : 1
sigFpe : Enabling floating point exception trapping (FOAM_SIGFPE).
fileModificationChecking : Monitoring run-time modified files using timeStampMaster
allowSystemOperations : Allowing user-supplied system call operations

// * * * * * * * * * * * * * * * * * * * * * * * * * * * * * * * * * * * * * //
Create time

Create mesh for time = 0


PISO: Operating solver in PISO mode

Reading transportProperties

Reading field p

Reading field U

Reading/calculating face flux field phi


Starting time loop

Time = 0.0005

Courant Number mean: 0 max: 0
smoothSolver:  Solving for Ux, Initial residual = 0, Final residual = 0, No Iterations 0
smoothSolver:  Solving for Uy, Initial residual = 0, Final residual = 0, No Iterations 0
smoothSolver:  Solving for Uz, Initial residual = 1, Final residual = 5.7493319e-09, No Iterations 15
FDICPCG:  Solving for p, Initial residual = 1, Final residual = 0.0081602315, No Iterations 609
FDICPCG:  Solving for p, Initial residual = 0.00012216839, Final residual = 9.6056218e-07, No Iterations 24
time step continuity errors : sum local = 4.6238431e-07, global = -8.4765931e-09, cumulative = -8.4765931e-09
FDICPCG:  Solving for p, Initial residual = 0.0042632699, Final residual = 3.0395632e-05, No Iterations 605
FDICPCG:  Solving for p, Initial residual = 0.00025379565, Final residual = 8.359425e-07, No Iterations 26
time step continuity errors : sum local = 1.5450783e-07, global = 4.4231511e-10, cumulative = -8.034278e-09
ExecutionTime = 2.47 s  ClockTime = 2 s

fieldMinMax minmaxdomain output:
    min(p) = 0 at location (-0.000525 0 0.216)
    max(p) = 706.27187 at location (-0.0014503614 0.00014395118 0.0015)
    min(U) = (-0.023609124 -0.00033309498 0.66984538) at location (0.0013764703 -0.00013524057 0.0015)
    max(U) = (0.01125394 0.017662033 0.96820519) at location (-0.00067060103 -0.00082388178 0.0015)

Time = 0.001

Courant Number mean: 0.23865153 max: 0.39452981
smoothSolver:  Solving for Ux, Initial residual = 0.35039752, Final residual = 5.3927393e-09, No Iterations 13
smoothSolver:  Solving for Uy, Initial residual = 0.35031365, Final residual = 5.8580789e-09, No Iterations 13
smoothSolver:  Solving for Uz, Initial residual = 0.60025808, Final residual = 3.4619773e-09, No Iterations 15
FDICPCG:  Solving for p, Initial residual = 0.019530259, Final residual = 0.00015006697, No Iterations 607
FDICPCG:  Solving for p, Initial residual = 0.00037092774, Final residual = 3.097662e-06, No Iterations 21
time step continuity errors : sum local = 8.3116385e-07, global = 1.119666e-08, cumulative = 3.1623817e-09
FDICPCG:  Solving for p, Initial residual = 0.0077751835, Final residual = 5.4669533e-05, No Iterations 599
FDICPCG:  Solving for p, Initial residual = 0.0084339921, Final residual = 9.8738904e-07, No Iterations 121
time step continuity errors : sum local = 8.8540143e-09, global = -8.0605184e-12, cumulative = 3.1543212e-09
ExecutionTime = 4.95 s  ClockTime = 5 s

fieldMinMax minmaxdomain output:
    min(p) = 0 at location (-0.000525 0 0.216)
    max(p) = 29.173683 at location (0.00092118362 0.0011227589 0.0015)
    min(U) = (-0.010578304 -0.041784935 1.039339) at location (0.00033812783 0.0011454499 0.0015)
    max(U) = (0.018454192 1.2593171e-08 1.1212676) at location (-0.000525 -6.8173165e-21 0.0015)

Time = 0.0015

Courant Number mean: 0.23990087 max: 0.47644547
smoothSolver:  Solving for Ux, Initial residual = 0.1729521, Final residual = 4.1629642e-09, No Iterations 13
smoothSolver:  Solving for Uy, Initial residual = 0.17286453, Final residual = 4.4568113e-09, No Iterations 13
smoothSolver:  Solving for Uz, Initial residual = 0.070507479, Final residual = 6.8173183e-09, No Iterations 12
FDICPCG:  Solving for p, Initial residual = 0.058767333, Final residual = 0.00057199593, No Iterations 597
FDICPCG:  Solving for p, Initial residual = 0.0039115998, Final residual = 3.4156767e-05, No Iterations 16
time step continuity errors : sum local = 4.2100529e-07, global = -3.0487202e-09, cumulative = 1.0560101e-10
FDICPCG:  Solving for p, Initial residual = 0.017348789, Final residual = 0.00016493337, No Iterations 598
FDICPCG:  Solving for p, Initial residual = 0.0027092999, Final residual = 9.4948599e-07, No Iterations 54
time step continuity errors : sum local = 9.4482911e-09, global = 4.276362e-12, cumulative = 1.0987737e-10
ExecutionTime = 7.71 s  ClockTime = 8 s

fieldMinMax minmaxdomain output:
    min(p) = 0 at location (-0.000525 0 0.216)
    max(p) = 35.906067 at location (-0.0014503614 0.00014395118 0.0015)
    min(U) = (-0.013388085 -0.049512209 1.1184838) at location (0.00033812783 0.0011454499 0.0015)
    max(U) = (0.024512255 5.8983199e-07 1.2212206) at location (-0.000525 -6.8173165e-21 0.0015)

Time = 0.002

Courant Number mean: 0.24035984 max: 0.51470614
smoothSolver:  Solving for Ux, Initial residual = 0.070190856, Final residual = 5.1559529e-09, No Iterations 12
smoothSolver:  Solving for Uy, Initial residual = 0.070139672, Final residual = 5.6236236e-09, No Iterations 12
smoothSolver:  Solving for Uz, Initial residual = 0.046073164, Final residual = 7.456965e-09, No Iterations 12
FDICPCG:  Solving for p, Initial residual = 0.013282394, Final residual = 0.00012769376, No Iterations 605
FDICPCG:  Solving for p, Initial residual = 0.0011479136, Final residual = 7.634904e-06, No Iterations 23
time step continuity errors : sum local = 5.1659468e-08, global = 4.636388e-10, cumulative = 5.7351617e-10
FDICPCG:  Solving for p, Initial residual = 0.0077242982, Final residual = 5.0118939e-05, No Iterations 605
FDICPCG:  Solving for p, Initial residual = 0.00042742032, Final residual = 9.6343125e-07, No Iterations 21
time step continuity errors : sum local = 8.3396737e-09, global = -1.4828809e-10, cumulative = 4.2522809e-10
ExecutionTime = 10.23 s  ClockTime = 10 s

fieldMinMax minmaxdomain output:
    min(p) = 0 at location (-0.000525 0 0.216)
    max(p) = 31.019824 at location (-0.00014395118 0.0014503614 0.0015)
    min(U) = (-0.015245114 -0.054665671 1.156668) at location (0.00033812783 0.0011454499 0.0015)
    max(U) = (0.028534808 9.0315408e-08 1.2883402) at location (-0.000525 -6.8173165e-21 0.0015)

Time = 0.0025

Courant Number mean: 0.24071593 max: 0.53885657
smoothSolver:  Solving for Ux, Initial residual = 0.050513629, Final residual = 4.6129595e-09, No Iterations 12
smoothSolver:  Solving for Uy, Initial residual = 0.050507889, Final residual = 4.9664243e-09, No Iterations 12
smoothSolver:  Solving for Uz, Initial residual = 0.032540139, Final residual = 5.7398407e-09, No Iterations 12
FDICPCG:  Solving for p, Initial residual = 0.0081217588, Final residual = 6.4714598e-05, No Iterations 597
FDICPCG:  Solving for p, Initial residual = 0.00067256799, Final residual = 4.7999601e-06, No Iterations 16
time step continuity errors : sum local = 3.2851099e-08, global = -1.0874012e-09, cumulative = -6.6217307e-10
FDICPCG:  Solving for p, Initial residual = 0.0029189863, Final residual = 2.6829512e-05, No Iterations 605
FDICPCG:  Solving for p, Initial residual = 0.00030430648, Final residual = 9.7976514e-07, No Iterations 26
time step continuity errors : sum local = 7.7552796e-09, global = 9.1222105e-11, cumulative = -5.7095097e-10
ExecutionTime = 14.03 s  ClockTime = 14 s

fieldMinMax minmaxdomain output:
    min(p) = 0 at location (-0.000525 0 0.216)
    max(p) = 28.37281 at location (-0.0014503614 0.00014395118 0.0015)
    min(U) = (-0.006525706 -0.060862656 1.2510292) at location (0.00010410184 0.0011123239 0.0015)
    max(U) = (0.031628259 1.9788813e-08 1.3317458) at location (-0.000525 -6.8173165e-21 0.0015)

Time = 0.003

Courant Number mean: 0.24098744 max: 0.55455855
smoothSolver:  Solving for Ux, Initial residual = 0.037472548, Final residual = 3.5401218e-09, No Iterations 12
smoothSolver:  Solving for Uy, Initial residual = 0.037469113, Final residual = 3.824961e-09, No Iterations 12
smoothSolver:  Solving for Uz, Initial residual = 0.025182481, Final residual = 4.7484951e-09, No Iterations 12
FDICPCG:  Solving for p, Initial residual = 0.0051216916, Final residual = 4.078085e-05, No Iterations 604
FDICPCG:  Solving for p, Initial residual = 0.00035841144, Final residual = 2.1307379e-06, No Iterations 24
time step continuity errors : sum local = 1.4217274e-08, global = 1.3842758e-10, cumulative = -4.3252339e-10
FDICPCG:  Solving for p, Initial residual = 0.0015684002, Final residual = 1.3279577e-05, No Iterations 605
FDICPCG:  Solving for p, Initial residual = 0.00016742745, Final residual = 9.716299e-07, No Iterations 16
time step continuity errors : sum local = 7.2009774e-09, global = -1.5297566e-10, cumulative = -5.8549905e-10
ExecutionTime = 17.34 s  ClockTime = 17 s

fieldMinMax minmaxdomain output:
    min(p) = 0 at location (-0.000525 0 0.216)
    max(p) = 26.556065 at location (0.00014395118 -0.0014503614 0.0015)
    min(U) = (-0.028719228 -0.056300325 1.3020371) at location (0.00049574271 0.00095086855 0.0015)
    max(U) = (0.033890637 -1.2791035e-08 1.3604619) at location (-0.000525 -6.8173165e-21 0.0015)

Time = 0.0035

Courant Number mean: 0.24120851 max: 0.56726474
smoothSolver:  Solving for Ux, Initial residual = 0.030030882, Final residual = 2.9572326e-09, No Iterations 12
smoothSolver:  Solving for Uy, Initial residual = 0.030028936, Final residual = 3.1893423e-09, No Iterations 12
smoothSolver:  Solving for Uz, Initial residual = 0.020129682, Final residual = 4.0415529e-09, No Iterations 12
FDICPCG:  Solving for p, Initial residual = 0.0036889268, Final residual = 2.1256321e-05, No Iterations 604
FDICPCG:  Solving for p, Initial residual = 0.0002826918, Final residual = 2.639065e-06, No Iterations 14
time step continuity errors : sum local = 1.714635e-08, global = -1.0824973e-10, cumulative = -6.9374878e-10
FDICPCG:  Solving for p, Initial residual = 0.0011348289, Final residual = 9.0882473e-06, No Iterations 599
FDICPCG:  Solving for p, Initial residual = 0.00013695327, Final residual = 9.8736572e-07, No Iterations 16
time step continuity errors : sum local = 6.9528874e-09, global = 9.5347259e-12, cumulative = -6.8421405e-10
ExecutionTime = 19.47 s  ClockTime = 19 s

fieldMinMax minmaxdomain output:
    min(p) = 0 at location (-0.000525 0 0.216)
    max(p) = 25.229057 at location (0.0014503614 -0.00014395118 0.0015)
    min(U) = (-0.006995807 -0.066211815 1.285472) at location (0.00010410184 0.0011123239 0.0015)
    max(U) = (0.040512467 0.019227022 1.3804359) at location (-0.00061610739 -0.00030459428 0.0015)

Time = 0.004

Courant Number mean: 0.24140015 max: 0.57717828
smoothSolver:  Solving for Ux, Initial residual = 0.024736186, Final residual = 8.9673117e-09, No Iterations 11
smoothSolver:  Solving for Uy, Initial residual = 0.024734517, Final residual = 9.5366051e-09, No Iterations 11
smoothSolver:  Solving for Uz, Initial residual = 0.016424613, Final residual = 3.4965981e-09, No Iterations 12
FDICPCG:  Solving for p, Initial residual = 0.0028144344, Final residual = 2.05261e-05, No Iterations 604
FDICPCG:  Solving for p, Initial residual = 0.00022355765, Final residual = 2.0034388e-06, No Iterations 14
time step continuity errors : sum local = 1.269916e-08, global = -1.8636596e-10, cumulative = -8.7058001e-10
FDICPCG:  Solving for p, Initial residual = 0.00088257354, Final residual = 7.7772623e-06, No Iterations 599
FDICPCG:  Solving for p, Initial residual = 0.00010944147, Final residual = 8.1129015e-07, No Iterations 14
time step continuity errors : sum local = 5.4830612e-09, global = 6.7849606e-11, cumulative = -8.027304e-10
ExecutionTime = 21.77 s  ClockTime = 22 s

fieldMinMax minmaxdomain output:
    min(p) = 0 at location (-0.000525 0 0.216)
    max(p) = 24.214498 at location (0.0014503614 -0.00014395118 0.0015)
    min(U) = (-0.0071211465 -0.067750943 1.2962837) at location (0.00010410184 0.0011123239 0.0015)
    max(U) = (0.042752947 0.034148389 1.3960199) at location (-0.0006310689 -0.00050894412 0.0015)

Time = 0.0045

Courant Number mean: 0.24157951 max: 0.58402448
smoothSolver:  Solving for Ux, Initial residual = 0.020825846, Final residual = 7.823465e-09, No Iterations 11
smoothSolver:  Solving for Uy, Initial residual = 0.020825983, Final residual = 8.1940468e-09, No Iterations 11
smoothSolver:  Solving for Uz, Initial residual = 0.013691172, Final residual = 3.0582786e-09, No Iterations 12
FDICPCG:  Solving for p, Initial residual = 0.0022790996, Final residual = 1.9074416e-05, No Iterations 604
FDICPCG:  Solving for p, Initial residual = 0.00018085019, Final residual = 1.6893123e-06, No Iterations 15
time step continuity errors : sum local = 1.0474561e-08, global = -1.2950899e-10, cumulative = -9.3223939e-10
FDICPCG:  Solving for p, Initial residual = 0.00074320081, Final residual = 6.6977354e-06, No Iterations 599
FDICPCG:  Solving for p, Initial residual = 8.8889692e-05, Final residual = 7.1715498e-07, No Iterations 14
time step continuity errors : sum local = 4.6860001e-09, global = 7.0436696e-11, cumulative = -8.618027e-10
ExecutionTime = 24.88 s  ClockTime = 25 s

fieldMinMax minmaxdomain output:
    min(p) = 0 at location (-0.000525 0 0.216)
    max(p) = 23.413929 at location (0.0014503614 -0.00014395118 0.0015)
    min(U) = (-0.007204765 -0.068814427 1.3049356) at location (0.00010410184 0.0011123239 0.0015)
    max(U) = (0.043744995 0.034937494 1.4084301) at location (-0.0006310689 -0.00050894412 0.0015)

Time = 0.005

Courant Number mean: 0.24174027 max: 0.58872438
smoothSolver:  Solving for Ux, Initial residual = 0.017777853, Final residual = 7.0239765e-09, No Iterations 11
smoothSolver:  Solving for Uy, Initial residual = 0.017777476, Final residual = 7.192692e-09, No Iterations 11
smoothSolver:  Solving for Uz, Initial residual = 0.011627428, Final residual = 8.8510204e-09, No Iterations 11
FDICPCG:  Solving for p, Initial residual = 0.0019094579, Final residual = 1.6327983e-05, No Iterations 604
FDICPCG:  Solving for p, Initial residual = 0.00014829199, Final residual = 1.4279202e-06, No Iterations 15
time step continuity errors : sum local = 8.6823588e-09, global = -1.0762284e-10, cumulative = -9.6942554e-10
FDICPCG:  Solving for p, Initial residual = 0.00065609291, Final residual = 5.629201e-06, No Iterations 599
FDICPCG:  Solving for p, Initial residual = 7.3426571e-05, Final residual = 9.985946e-07, No Iterations 13
time step continuity errors : sum local = 6.3430633e-09, global = 6.7998074e-11, cumulative = -9.0142746e-10
ExecutionTime = 27.31 s  ClockTime = 27 s

fieldMinMax minmaxdomain output:
    min(p) = 0 at location (-0.000525 0 0.216)
    max(p) = 22.767116 at location (0.0014503614 -0.00014395118 0.0015)
    min(U) = (-0.0072605928 -0.069541805 1.3120596) at location (0.00010410184 0.0011123239 0.0015)
    max(U) = (0.044427181 0.035478411 1.4181541) at location (-0.0006310689 -0.00050894412 0.0015)

Time = 0.0055

Courant Number mean: 0.24188288 max: 0.591926
smoothSolver:  Solving for Ux, Initial residual = 0.015315401, Final residual = 6.2746204e-09, No Iterations 11
smoothSolver:  Solving for Uy, Initial residual = 0.015315116, Final residual = 6.4233301e-09, No Iterations 11
smoothSolver:  Solving for Uz, Initial residual = 0.010022908, Final residual = 7.8522565e-09, No Iterations 11
FDICPCG:  Solving for p, Initial residual = 0.0016207194, Final residual = 1.3244933e-05, No Iterations 604
FDICPCG:  Solving for p, Initial residual = 0.00012116205, Final residual = 1.1778643e-06, No Iterations 14
time step continuity errors : sum local = 7.0391023e-09, global = -4.4133661e-11, cumulative = -9.4556112e-10
FDICPCG:  Solving for p, Initial residual = 0.00058901495, Final residual = 4.4948973e-06, No Iterations 599
FDICPCG:  Solving for p, Initial residual = 6.0617297e-05, Final residual = 9.3619652e-07, No Iterations 11
time step continuity errors : sum local = 5.8055778e-09, global = 7.9821135e-11, cumulative = -8.6573999e-10
ExecutionTime = 29 s  ClockTime = 29 s

fieldMinMax minmaxdomain output:
    min(p) = 0 at location (-0.000525 0 0.216)
    max(p) = 22.234787 at location (0.0014503614 -0.00014395118 0.0015)
    min(U) = (-0.0072979503 -0.070033963 1.3179755) at location (0.00010410184 0.0011123239 0.0015)
    max(U) = (0.044880766 0.035837319 1.4259966) at location (-0.0006310689 -0.00050894412 0.0015)

Time = 0.006

Courant Number mean: 0.24201035 max: 0.59408833
smoothSolver:  Solving for Ux, Initial residual = 0.013298081, Final residual = 5.5506065e-09, No Iterations 11
smoothSolver:  Solving for Uy, Initial residual = 0.013296652, Final residual = 5.6867923e-09, No Iterations 11
smoothSolver:  Solving for Uz, Initial residual = 0.0087182279, Final residual = 6.9942485e-09, No Iterations 11
FDICPCG:  Solving for p, Initial residual = 0.0013872606, Final residual = 1.0407141e-05, No Iterations 604
FDICPCG:  Solving for p, Initial residual = 9.9267854e-05, Final residual = 9.1953688e-07, No Iterations 15
time step continuity errors : sum local = 5.4118748e-09, global = -4.8975041e-11, cumulative = -9.1471503e-10
FDICPCG:  Solving for p, Initial residual = 0.00052832408, Final residual = 3.603017e-06, No Iterations 599
FDICPCG:  Solving for p, Initial residual = 5.046595e-05, Final residual = 9.5873306e-07, No Iterations 11
time step continuity errors : sum local = 5.8240554e-09, global = 3.6069231e-11, cumulative = -8.786458e-10
ExecutionTime = 31.1 s  ClockTime = 31 s

fieldMinMax minmaxdomain output:
    min(p) = 0 at location (-0.000525 0 0.216)
    max(p) = 21.790159 at location (0.0014503614 -0.00014395118 0.0015)
    min(U) = (-0.0073231449 -0.07036342 1.3228613) at location (0.00010410184 0.0011123239 0.0015)
    max(U) = (0.04517079 0.036066656 1.4324496) at location (-0.0006310689 -0.00050894412 0.0015)

Time = 0.0065

Courant Number mean: 0.24212416 max: 0.59553658
smoothSolver:  Solving for Ux, Initial residual = 0.011629929, Final residual = 4.9175795e-09, No Iterations 11
smoothSolver:  Solving for Uy, Initial residual = 0.011628641, Final residual = 5.0015258e-09, No Iterations 11
smoothSolver:  Solving for Uz, Initial residual = 0.0076275641, Final residual = 6.2495305e-09, No Iterations 11
FDICPCG:  Solving for p, Initial residual = 0.0012059669, Final residual = 7.8364592e-06, No Iterations 604
FDICPCG:  Solving for p, Initial residual = 8.1286208e-05, Final residual = 6.9460351e-07, No Iterations 14
time step continuity errors : sum local = 4.0329192e-09, global = -3.1638477e-11, cumulative = -9.1028428e-10
FDICPCG:  Solving for p, Initial residual = 0.00046993233, Final residual = 3.8684891e-06, No Iterations 598
FDICPCG:  Solving for p, Initial residual = 4.327773e-05, Final residual = 7.862903e-07, No Iterations 6
time step continuity errors : sum local = 4.6919599e-09, global = 8.6186568e-11, cumulative = -8.2409771e-10
ExecutionTime = 33.5 s  ClockTime = 33 s

fieldMinMax minmaxdomain output:
    min(p) = 0 at location (-0.000525 0 0.216)
    max(p) = 21.41428 at location (0.0014503614 -0.00014395118 0.0015)
    min(U) = (-0.0073403055 -0.070582105 1.3268381) at location (0.00010410184 0.0011123239 0.0015)
    max(U) = (0.045348091 0.036207086 1.4378175) at location (-0.0006310689 -0.00050894412 0.0015)

Time = 0.007

Courant Number mean: 0.24222641 max: 0.5965007
smoothSolver:  Solving for Ux, Initial residual = 0.010240802, Final residual = 4.3923682e-09, No Iterations 11
smoothSolver:  Solving for Uy, Initial residual = 0.010240838, Final residual = 4.4203496e-09, No Iterations 11
smoothSolver:  Solving for Uz, Initial residual = 0.0067034861, Final residual = 5.5987312e-09, No Iterations 11
FDICPCG:  Solving for p, Initial residual = 0.0010554181, Final residual = 8.7839764e-06, No Iterations 598
FDICPCG:  Solving for p, Initial residual = 7.0879044e-05, Final residual = 9.6981847e-07, No Iterations 16
time step continuity errors : sum local = 5.5634448e-09, global = -1.1636578e-10, cumulative = -9.4046348e-10
FDICPCG:  Solving for p, Initial residual = 0.00041570171, Final residual = 3.4531619e-06, No Iterations 599
FDICPCG:  Solving for p, Initial residual = 3.8170927e-05, Final residual = 9.3676376e-07, No Iterations 13
time step continuity errors : sum local = 5.5035593e-09, global = -5.0655702e-11, cumulative = -9.9111919e-10
ExecutionTime = 35.49 s  ClockTime = 35 s

fieldMinMax minmaxdomain output:
    min(p) = 0 at location (-0.000525 0 0.216)
    max(p) = 21.093345 at location (0.0014503614 -0.00014395118 0.0015)
    min(U) = (-0.007352259 -0.070726741 1.3300091) at location (0.00010410184 0.0011123239 0.0015)
    max(U) = (0.045451231 0.036289245 1.4422958) at location (-0.0006310689 -0.00050894412 0.0015)

Time = 0.0075

Courant Number mean: 0.24231871 max: 0.59714171
smoothSolver:  Solving for Ux, Initial residual = 0.0090663484, Final residual = 3.9070187e-09, No Iterations 11
smoothSolver:  Solving for Uy, Initial residual = 0.0090662729, Final residual = 3.9272682e-09, No Iterations 11
smoothSolver:  Solving for Uz, Initial residual = 0.0059135341, Final residual = 5.0248284e-09, No Iterations 11
FDICPCG:  Solving for p, Initial residual = 0.00091845887, Final residual = 8.9391416e-06, No Iterations 604
FDICPCG:  Solving for p, Initial residual = 6.2581239e-05, Final residual = 9.1696112e-07, No Iterations 18
time step continuity errors : sum local = 5.2041821e-09, global = 2.1916072e-11, cumulative = -9.6920311e-10
FDICPCG:  Solving for p, Initial residual = 0.00037680063, Final residual = 3.4788554e-06, No Iterations 599
FDICPCG:  Solving for p, Initial residual = 3.3844169e-05, Final residual = 8.4903499e-07, No Iterations 13
time step continuity errors : sum local = 4.9205684e-09, global = -1.8392568e-11, cumulative = -9.8759568e-10
ExecutionTime = 37.54 s  ClockTime = 37 s

fieldMinMax minmaxdomain output:
    min(p) = 0 at location (-0.000525 0 0.216)
    max(p) = 20.81704 at location (-0.0014503614 0.00014395118 0.0015)
    min(U) = (-0.0073608583 -0.07082293 1.3324755) at location (0.00010410184 0.0011123239 0.0015)
    max(U) = (0.045508433 0.036335522 1.446021) at location (-0.0006310689 -0.00050894412 0.0015)

Time = 0.008

Courant Number mean: 0.24240198 max: 0.59757114
smoothSolver:  Solving for Ux, Initial residual = 0.0080860313, Final residual = 3.4707415e-09, No Iterations 11
smoothSolver:  Solving for Uy, Initial residual = 0.0080859712, Final residual = 3.4864893e-09, No Iterations 11
smoothSolver:  Solving for Uz, Initial residual = 0.0052357045, Final residual = 4.5168039e-09, No Iterations 11
FDICPCG:  Solving for p, Initial residual = 0.00080101982, Final residual = 7.9206499e-06, No Iterations 604
FDICPCG:  Solving for p, Initial residual = 5.4352691e-05, Final residual = 9.6033205e-07, No Iterations 14
time step continuity errors : sum local = 5.3986009e-09, global = 2.1157469e-11, cumulative = -9.6643821e-10
FDICPCG:  Solving for p, Initial residual = 0.00034667816, Final residual = 3.1210882e-06, No Iterations 599
FDICPCG:  Solving for p, Initial residual = 2.9491003e-05, Final residual = 9.3095808e-07, No Iterations 11
time step continuity errors : sum local = 5.3309519e-09, global = -3.1840701e-11, cumulative = -9.9827891e-10
ExecutionTime = 39.72 s  ClockTime = 40 s

fieldMinMax minmaxdomain output:
    min(p) = 0 at location (-0.000525 0 0.216)
    max(p) = 20.577491 at location (-0.0014503614 -0.00014395118 0.0015)
    min(U) = (-0.0073672932 -0.070888231 1.3343392) at location (0.00010410184 0.0011123239 0.0015)
    max(U) = (0.045539637 0.036361577 1.4490985) at location (-0.0006310689 -0.00050894412 0.0015)

Time = 0.0085

Courant Number mean: 0.2424773 max: 0.59786514
smoothSolver:  Solving for Ux, Initial residual = 0.007236127, Final residual = 3.1185634e-09, No Iterations 11
smoothSolver:  Solving for Uy, Initial residual = 0.0072348194, Final residual = 3.102141e-09, No Iterations 11
smoothSolver:  Solving for Uz, Initial residual = 0.0046592788, Final residual = 4.0651128e-09, No Iterations 11
FDICPCG:  Solving for p, Initial residual = 0.00070983667, Final residual = 4.8070171e-06, No Iterations 605
FDICPCG:  Solving for p, Initial residual = 4.5340397e-05, Final residual = 7.1270267e-07, No Iterations 14
time step continuity errors : sum local = 3.9726559e-09, global = 2.662035e-11, cumulative = -9.7165856e-10
FDICPCG:  Solving for p, Initial residual = 0.00031436602, Final residual = 3.0474511e-06, No Iterations 599
FDICPCG:  Solving for p, Initial residual = 2.5602242e-05, Final residual = 8.9572487e-07, No Iterations 11
time step continuity errors : sum local = 5.0751064e-09, global = -6.0050871e-11, cumulative = -1.0317094e-09
ExecutionTime = 41.74 s  ClockTime = 42 s

fieldMinMax minmaxdomain output:
    min(p) = 0 at location (-0.000525 0 0.216)
    max(p) = 20.368576 at location (-0.0014503614 0.00014395118 0.0015)
    min(U) = (-0.0073723032 -0.070934387 1.3357018) at location (0.00010410184 0.0011123239 0.0015)
    max(U) = (0.045558185 0.036377852 1.4516181) at location (-0.0006310689 -0.00050894412 0.0015)

Time = 0.009

Courant Number mean: 0.24254549 max: 0.59807446
smoothSolver:  Solving for Ux, Initial residual = 0.0064848446, Final residual = 9.8872057e-09, No Iterations 10
smoothSolver:  Solving for Uy, Initial residual = 0.0064835655, Final residual = 9.8720777e-09, No Iterations 10
smoothSolver:  Solving for Uz, Initial residual = 0.0041551464, Final residual = 3.6610856e-09, No Iterations 11
FDICPCG:  Solving for p, Initial residual = 0.0006352075, Final residual = 4.5392155e-06, No Iterations 605
FDICPCG:  Solving for p, Initial residual = 3.8646064e-05, Final residual = 8.2631317e-07, No Iterations 13
time step continuity errors : sum local = 4.571255e-09, global = 6.0700041e-11, cumulative = -9.7100939e-10
FDICPCG:  Solving for p, Initial residual = 0.00028619785, Final residual = 2.5752994e-06, No Iterations 599
FDICPCG:  Solving for p, Initial residual = 2.179664e-05, Final residual = 8.0422628e-07, No Iterations 10
time step continuity errors : sum local = 4.5141177e-09, global = -5.5007888e-11, cumulative = -1.0260173e-09
ExecutionTime = 43.6 s  ClockTime = 43 s

fieldMinMax minmaxdomain output:
    min(p) = 0 at location (-0.000525 0 0.216)
    max(p) = 20.18545 at location (-0.0014503614 0.00014395118 0.0015)
    min(U) = (-0.0073763722 -0.070969056 1.3366597) at location (0.00010410184 0.0011123239 0.0015)
    max(U) = (0.045572466 0.036390876 1.4536605) at location (-0.0006310689 -0.00050894412 0.0015)

Time = 0.0095

Courant Number mean: 0.24260729 max: 0.59823212
smoothSolver:  Solving for Ux, Initial residual = 0.005820379, Final residual = 8.9604816e-09, No Iterations 10
smoothSolver:  Solving for Uy, Initial residual = 0.0058190109, Final residual = 8.8930544e-09, No Iterations 10
smoothSolver:  Solving for Uz, Initial residual = 0.003712427, Final residual = 3.3008986e-09, No Iterations 11
FDICPCG:  Solving for p, Initial residual = 0.00057567193, Final residual = 4.0933568e-06, No Iterations 605
FDICPCG:  Solving for p, Initial residual = 3.2653127e-05, Final residual = 7.0827646e-07, No Iterations 13
time step continuity errors : sum local = 3.8920285e-09, global = 5.2861015e-11, cumulative = -9.7315627e-10
FDICPCG:  Solving for p, Initial residual = 0.00026573577, Final residual = 2.1120795e-06, No Iterations 599
FDICPCG:  Solving for p, Initial residual = 1.8420974e-05, Final residual = 8.1650729e-07, No Iterations 6
time step continuity errors : sum local = 4.545161e-09, global = -1.0020834e-10, cumulative = -1.0733646e-09
ExecutionTime = 46.02 s  ClockTime = 46 s

fieldMinMax minmaxdomain output:
    min(p) = 0 at location (-0.000525 0 0.216)
    max(p) = 20.024228 at location (0.0014503614 0.00014395118 0.0015)
    min(U) = (-0.007379787 -0.070997017 1.3373014) at location (0.00010410184 0.0011123239 0.0015)
    max(U) = (0.045587253 0.036404304 1.4552999) at location (-0.0006310689 -0.00050894412 0.0015)

Time = 0.01

Courant Number mean: 0.24266353 max: 0.59835888
smoothSolver:  Solving for Ux, Initial residual = 0.0052534306, Final residual = 8.1126334e-09, No Iterations 10
smoothSolver:  Solving for Uy, Initial residual = 0.0052530755, Final residual = 8.0453186e-09, No Iterations 10
smoothSolver:  Solving for Uz, Initial residual = 0.0033228099, Final residual = 9.8161655e-09, No Iterations 10
FDICPCG:  Solving for p, Initial residual = 0.00052167127, Final residual = 3.2106574e-06, No Iterations 605
FDICPCG:  Solving for p, Initial residual = 2.7157415e-05, Final residual = 5.5539396e-07, No Iterations 13
time step continuity errors : sum local = 3.0336452e-09, global = 3.547489e-11, cumulative = -1.0378897e-09
FDICPCG:  Solving for p, Initial residual = 0.00024317432, Final residual = 1.8296797e-06, No Iterations 599
FDICPCG:  Solving for p, Initial residual = 1.5611446e-05, Final residual = 8.6913688e-07, No Iterations 5
time step continuity errors : sum local = 4.8025474e-09, global = -9.1991353e-11, cumulative = -1.1298811e-09
ExecutionTime = 48.08 s  ClockTime = 48 s

fieldMinMax minmaxdomain output:
    min(p) = 0 at location (-0.000525 0 0.216)
    max(p) = 19.881753 at location (-0.0014503614 0.00014395118 0.0015)
    min(U) = (-0.007382728 -0.071021115 1.3377048) at location (0.00010410184 0.0011123239 0.0015)
    max(U) = (0.045604822 0.036419854 1.4566044) at location (-0.0006310689 -0.00050894412 0.0015)

Time = 0.0105

Courant Number mean: 0.24271467 max: 0.59846715
smoothSolver:  Solving for Ux, Initial residual = 0.0048875937, Final residual = 7.3101436e-09, No Iterations 10
smoothSolver:  Solving for Uy, Initial residual = 0.0048874396, Final residual = 7.2749941e-09, No Iterations 10
smoothSolver:  Solving for Uz, Initial residual = 0.0029810983, Final residual = 8.8655325e-09, No Iterations 10
FDICPCG:  Solving for p, Initial residual = 0.00046937319, Final residual = 4.4197236e-06, No Iterations 604
FDICPCG:  Solving for p, Initial residual = 2.4293599e-05, Final residual = 7.6475963e-07, No Iterations 9
time step continuity errors : sum local = 4.1548326e-09, global = 8.9110007e-11, cumulative = -1.0407711e-09
FDICPCG:  Solving for p, Initial residual = 0.00022080823, Final residual = 1.586783e-06, No Iterations 599
FDICPCG:  Solving for p, Initial residual = 1.3317654e-05, Final residual = 8.1304842e-07, No Iterations 4
time step continuity errors : sum local = 4.4631417e-09, global = -4.9645073e-11, cumulative = -1.0904161e-09
ExecutionTime = 49.91 s  ClockTime = 50 s

fieldMinMax minmaxdomain output:
    min(p) = 0 at location (-0.000525 0 0.216)
    max(p) = 19.755425 at location (-0.00014395118 0.0014503614 0.0015)
    min(U) = (-0.0073853003 -0.071042893 1.3379356) at location (0.00010410184 0.0011123239 0.0015)
    max(U) = (0.045625739 0.036437927 1.4576353) at location (-0.0006310689 -0.00050894412 0.0015)

Time = 0.011

Courant Number mean: 0.24276126 max: 0.59856385
smoothSolver:  Solving for Ux, Initial residual = 0.0045584244, Final residual = 6.6123029e-09, No Iterations 10
smoothSolver:  Solving for Uy, Initial residual = 0.0045580992, Final residual = 6.5631259e-09, No Iterations 10
smoothSolver:  Solving for Uz, Initial residual = 0.0026809599, Final residual = 8.0120651e-09, No Iterations 10
FDICPCG:  Solving for p, Initial residual = 0.00041780358, Final residual = 3.6373226e-06, No Iterations 604
FDICPCG:  Solving for p, Initial residual = 2.2245805e-05, Final residual = 8.3411235e-07, No Iterations 6
time step continuity errors : sum local = 4.5098158e-09, global = 8.0052109e-11, cumulative = -1.010364e-09
FDICPCG:  Solving for p, Initial residual = 0.00020275234, Final residual = 1.378759e-06, No Iterations 599
FDICPCG:  Solving for p, Initial residual = 1.2130091e-05, Final residual = 6.8610028e-07, No Iterations 4
time step continuity errors : sum local = 3.7441779e-09, global = -3.4862524e-11, cumulative = -1.0452266e-09
ExecutionTime = 51.65 s  ClockTime = 52 s

fieldMinMax minmaxdomain output:
    min(p) = 0 at location (-0.000525 0 0.216)
    max(p) = 19.643089 at location (0.0014503614 0.00014395118 0.0015)
    min(U) = (-0.0073875652 -0.071063113 1.3380473) at location (0.00010410184 0.0011123239 0.0015)
    max(U) = (0.045649623 0.036458178 1.4584464) at location (-0.0006310689 -0.00050894412 0.0015)

Time = 0.0115

Courant Number mean: 0.24280364 max: 0.59865251
smoothSolver:  Solving for Ux, Initial residual = 0.00421306, Final residual = 6.0360833e-09, No Iterations 10
smoothSolver:  Solving for Uy, Initial residual = 0.0042128628, Final residual = 5.9522931e-09, No Iterations 10
smoothSolver:  Solving for Uz, Initial residual = 0.0024149971, Final residual = 7.2434606e-09, No Iterations 10
FDICPCG:  Solving for p, Initial residual = 0.00036824014, Final residual = 3.016915e-06, No Iterations 604
FDICPCG:  Solving for p, Initial residual = 2.0905682e-05, Final residual = 6.957013e-07, No Iterations 6
time step continuity errors : sum local = 3.7452021e-09, global = 5.7960725e-11, cumulative = -9.8726583e-10
FDICPCG:  Solving for p, Initial residual = 0.00018705117, Final residual = 1.699607e-06, No Iterations 598
FDICPCG:  Solving for p, Initial residual = 1.1769249e-05, Final residual = 6.613374e-07, No Iterations 4
time step continuity errors : sum local = 3.5900726e-09, global = -2.8038324e-11, cumulative = -1.0153042e-09
ExecutionTime = 54.02 s  ClockTime = 54 s

fieldMinMax minmaxdomain output:
    min(p) = 0 at location (-0.000525 0 0.216)
    max(p) = 19.54294 at location (-0.0014503614 -0.00014395118 0.0015)
    min(U) = (-0.0073895617 -0.071082057 1.3380819) at location (0.00010410184 0.0011123239 0.0015)
    max(U) = (0.045675565 0.036479869 1.4590839) at location (-0.0006310689 -0.00050894412 0.0015)

Time = 0.012

Courant Number mean: 0.24284227 max: 0.59873463
smoothSolver:  Solving for Ux, Initial residual = 0.0038612169, Final residual = 5.4934761e-09, No Iterations 10
smoothSolver:  Solving for Uy, Initial residual = 0.0038610646, Final residual = 5.4136077e-09, No Iterations 10
smoothSolver:  Solving for Uz, Initial residual = 0.0021778387, Final residual = 6.5515368e-09, No Iterations 10
FDICPCG:  Solving for p, Initial residual = 0.00032903874, Final residual = 2.5063242e-06, No Iterations 599
FDICPCG:  Solving for p, Initial residual = 1.9305036e-05, Final residual = 8.5132768e-07, No Iterations 10
time step continuity errors : sum local = 4.5651684e-09, global = 5.3862175e-11, cumulative = -9.6144198e-10
FDICPCG:  Solving for p, Initial residual = 0.00017054276, Final residual = 1.4289201e-06, No Iterations 593
FDICPCG:  Solving for p, Initial residual = 1.0938223e-05, Final residual = 8.2228541e-07, No Iterations 4
time step continuity errors : sum local = 4.4427389e-09, global = -5.6880944e-11, cumulative = -1.0183229e-09
ExecutionTime = 56 s  ClockTime = 56 s

fieldMinMax minmaxdomain output:
    min(p) = 0 at location (-0.000525 0 0.216)
    max(p) = 19.453452 at location (0.0014503614 0.00014395118 0.0015)
    min(U) = (-0.0073913201 -0.071099755 1.3380708) at location (0.00010410184 0.0011123239 0.0015)
    max(U) = (0.045702463 0.036502136 1.4595863) at location (-0.0006310689 -0.00050894412 0.0015)

Time = 0.0125

Courant Number mean: 0.24287751 max: 0.59881061
smoothSolver:  Solving for Ux, Initial residual = 0.0035153328, Final residual = 4.9672369e-09, No Iterations 10
smoothSolver:  Solving for Uy, Initial residual = 0.0035145132, Final residual = 4.9111019e-09, No Iterations 10
smoothSolver:  Solving for Uz, Initial residual = 0.0019664474, Final residual = 5.93056e-09, No Iterations 10
FDICPCG:  Solving for p, Initial residual = 0.00029563077, Final residual = 2.0002197e-06, No Iterations 598
FDICPCG:  Solving for p, Initial residual = 1.7755801e-05, Final residual = 8.5224139e-07, No Iterations 5
time step continuity errors : sum local = 4.5540302e-09, global = 4.430318e-11, cumulative = -9.7401974e-10
FDICPCG:  Solving for p, Initial residual = 0.00015537273, Final residual = 1.3334324e-06, No Iterations 584
FDICPCG:  Solving for p, Initial residual = 1.0179917e-05, Final residual = 9.7528705e-07, No Iterations 4
time step continuity errors : sum local = 5.2470394e-09, global = -2.6554368e-11, cumulative = -1.0005741e-09
ExecutionTime = 57.67 s  ClockTime = 58 s

fieldMinMax minmaxdomain output:
    min(p) = 0 at location (-0.000525 0 0.216)
    max(p) = 19.37333 at location (-0.0014503614 -0.00014395118 0.0015)
    min(U) = (-0.0073928498 -0.071116128 1.3380367) at location (0.00010410184 0.0011123239 0.0015)
    max(U) = (0.045729253 0.036524137 1.459985) at location (-0.0006310689 -0.00050894412 0.0015)

Time = 0.013

Courant Number mean: 0.24290966 max: 0.59888035
smoothSolver:  Solving for Ux, Initial residual = 0.0031827222, Final residual = 4.4737979e-09, No Iterations 10
smoothSolver:  Solving for Uy, Initial residual = 0.0031824823, Final residual = 4.4268831e-09, No Iterations 10
smoothSolver:  Solving for Uz, Initial residual = 0.0017780892, Final residual = 5.3708877e-09, No Iterations 10
FDICPCG:  Solving for p, Initial residual = 0.00026886848, Final residual = 2.3760743e-06, No Iterations 590
FDICPCG:  Solving for p, Initial residual = 1.6755366e-05, Final residual = 8.4360253e-07, No Iterations 12
time step continuity errors : sum local = 4.4935994e-09, global = 2.9172598e-11, cumulative = -9.7140151e-10
FDICPCG:  Solving for p, Initial residual = 0.00014233964, Final residual = 1.1467316e-06, No Iterations 584
FDICPCG:  Solving for p, Initial residual = 9.3514151e-06, Final residual = 8.2972711e-07, No Iterations 4
time step continuity errors : sum local = 4.4468797e-09, global = -9.4704548e-11, cumulative = -1.0661061e-09
ExecutionTime = 60.23 s  ClockTime = 60 s

fieldMinMax minmaxdomain output:
    min(p) = 0 at location (-0.000525 0 0.216)
    max(p) = 19.301465 at location (-0.0014503614 -0.00014395118 0.0015)
    min(U) = (-0.0073941707 -0.071131067 1.3379949) at location (0.00010410184 0.0011123239 0.0015)
    max(U) = (0.045755013 0.03654516 1.4603048) at location (-0.0006310689 -0.00050894412 0.0015)

Time = 0.0135

Courant Number mean: 0.24293903 max: 0.59894359
smoothSolver:  Solving for Ux, Initial residual = 0.0028772514, Final residual = 4.0514105e-09, No Iterations 10
smoothSolver:  Solving for Uy, Initial residual = 0.0028772128, Final residual = 3.9908334e-09, No Iterations 10
smoothSolver:  Solving for Uz, Initial residual = 0.0016097547, Final residual = 4.8649619e-09, No Iterations 10
FDICPCG:  Solving for p, Initial residual = 0.00024327309, Final residual = 2.3922562e-06, No Iterations 597
FDICPCG:  Solving for p, Initial residual = 1.5272109e-05, Final residual = 9.418228e-07, No Iterations 4
time step continuity errors : sum local = 5.0024175e-09, global = -6.5707893e-11, cumulative = -1.131814e-09
FDICPCG:  Solving for p, Initial residual = 0.00012953173, Final residual = 1.1087184e-06, No Iterations 590
FDICPCG:  Solving for p, Initial residual = 8.5336329e-06, Final residual = 8.8477201e-07, No Iterations 3
time step continuity errors : sum local = 4.725532e-09, global = 7.0003864e-11, cumulative = -1.0618101e-09
ExecutionTime = 61.56 s  ClockTime = 61 s

fieldMinMax minmaxdomain output:
    min(p) = 0 at location (-0.000525 0 0.216)
    max(p) = 19.236903 at location (0.0014503614 -0.00014395118 0.0015)
    min(U) = (-0.0073953061 -0.071144487 1.3379549) at location (0.00010410184 0.0011123239 0.0015)
    max(U) = (0.045779031 0.036564666 1.460565) at location (-0.0006310689 -0.00050894412 0.0015)

Time = 0.014

Courant Number mean: 0.24296582 max: 0.59900011
smoothSolver:  Solving for Ux, Initial residual = 0.002624492, Final residual = 3.6760307e-09, No Iterations 10
smoothSolver:  Solving for Uy, Initial residual = 0.0026243429, Final residual = 3.6115364e-09, No Iterations 10
smoothSolver:  Solving for Uz, Initial residual = 0.0014583773, Final residual = 4.4081593e-09, No Iterations 10
FDICPCG:  Solving for p, Initial residual = 0.00021897517, Final residual = 1.4117499e-06, No Iterations 598
FDICPCG:  Solving for p, Initial residual = 1.3332302e-05, Final residual = 8.1104651e-07, No Iterations 4
time step continuity errors : sum local = 4.2966337e-09, global = -4.8753475e-11, cumulative = -1.1105636e-09
FDICPCG:  Solving for p, Initial residual = 0.00011806562, Final residual = 8.54244e-07, No Iterations 593
FDICPCG:  Solving for p, Initial residual = 7.6659053e-06, Final residual = 6.9797588e-07, No Iterations 3
time step continuity errors : sum local = 3.7162376e-09, global = 4.4838708e-11, cumulative = -1.0657249e-09
ExecutionTime = 63.78 s  ClockTime = 64 s

fieldMinMax minmaxdomain output:
    min(p) = 0 at location (-0.000525 0 0.216)
    max(p) = 19.178821 at location (-0.0014503614 0.00014395118 0.0015)
    min(U) = (-0.0073962633 -0.071156363 1.3379222) at location (0.00010410184 0.0011123239 0.0015)
    max(U) = (0.045800831 0.036582299 1.4607801) at location (-0.0006310689 -0.00050894412 0.0015)

Time = 0.0145

Courant Number mean: 0.2429903 max: 0.59904994
smoothSolver:  Solving for Ux, Initial residual = 0.0023925641, Final residual = 3.3240384e-09, No Iterations 10
smoothSolver:  Solving for Uy, Initial residual = 0.0023923603, Final residual = 3.2701042e-09, No Iterations 10
smoothSolver:  Solving for Uz, Initial residual = 0.0013218136, Final residual = 3.9961431e-09, No Iterations 10
FDICPCG:  Solving for p, Initial residual = 0.00019863981, Final residual = 1.2059891e-06, No Iterations 598
FDICPCG:  Solving for p, Initial residual = 1.2032446e-05, Final residual = 7.2223998e-07, No Iterations 4
time step continuity errors : sum local = 3.8171644e-09, global = -5.1965065e-11, cumulative = -1.1176899e-09
FDICPCG:  Solving for p, Initial residual = 0.0001074734, Final residual = 1.0295228e-06, No Iterations 590
FDICPCG:  Solving for p, Initial residual = 7.1310039e-06, Final residual = 7.792497e-07, No Iterations 3
time step continuity errors : sum local = 4.1372562e-09, global = 5.3506707e-11, cumulative = -1.0641832e-09
ExecutionTime = 65.92 s  ClockTime = 66 s

fieldMinMax minmaxdomain output:
    min(p) = 0 at location (-0.000525 0 0.216)
    max(p) = 19.126502 at location (0.0014503614 0.00014395118 0.0015)
    min(U) = (-0.0073970686 -0.071166707 1.3378989) at location (0.00010410184 0.0011123239 0.0015)
    max(U) = (0.045820138 0.036597867 1.460961) at location (-0.0006310689 -0.00050894412 0.0015)

Time = 0.015

Courant Number mean: 0.24301268 max: 0.59909323
smoothSolver:  Solving for Ux, Initial residual = 0.0021673565, Final residual = 2.9993927e-09, No Iterations 10
smoothSolver:  Solving for Uy, Initial residual = 0.0021672237, Final residual = 2.9510455e-09, No Iterations 10
smoothSolver:  Solving for Uz, Initial residual = 0.0011985832, Final residual = 3.6238015e-09, No Iterations 10
FDICPCG:  Solving for p, Initial residual = 0.0001832897, Final residual = 1.8206607e-06, No Iterations 587
FDICPCG:  Solving for p, Initial residual = 1.139085e-05, Final residual = 7.8100512e-07, No Iterations 4
time step continuity errors : sum local = 4.1189199e-09, global = 1.9096967e-11, cumulative = -1.0450862e-09
FDICPCG:  Solving for p, Initial residual = 9.7395067e-05, Final residual = 9.5386231e-07, No Iterations 592
FDICPCG:  Solving for p, Initial residual = 6.4759089e-06, Final residual = 5.5497255e-07, No Iterations 3
time step continuity errors : sum local = 2.9389669e-09, global = 1.8213587e-11, cumulative = -1.0268727e-09
ExecutionTime = 68.04 s  ClockTime = 68 s

fieldMinMax minmaxdomain output:
    min(p) = 0 at location (-0.000525 0 0.216)
    max(p) = 19.079322 at location (-0.0014503614 0.00014395118 0.0015)
    min(U) = (-0.0073977357 -0.071175582 1.3378855) at location (0.00010410184 0.0011123239 0.0015)
    max(U) = (0.045836868 0.036611318 1.4611153) at location (-0.0006310689 -0.00050894412 0.0015)

Time = 0.0155

Courant Number mean: 0.24303311 max: 0.5991303
smoothSolver:  Solving for Ux, Initial residual = 0.0019559252, Final residual = 9.7009082e-09, No Iterations 9
smoothSolver:  Solving for Uy, Initial residual = 0.0019555933, Final residual = 9.5816591e-09, No Iterations 9
smoothSolver:  Solving for Uz, Initial residual = 0.0010872636, Final residual = 3.28659e-09, No Iterations 10
FDICPCG:  Solving for p, Initial residual = 0.00016755449, Final residual = 1.5016473e-06, No Iterations 597
FDICPCG:  Solving for p, Initial residual = 1.0021269e-05, Final residual = 8.4862872e-07, No Iterations 3
time step continuity errors : sum local = 4.4668612e-09, global = -3.5545895e-11, cumulative = -1.0624186e-09
FDICPCG:  Solving for p, Initial residual = 8.7889479e-05, Final residual = 8.1821555e-07, No Iterations 590
FDICPCG:  Solving for p, Initial residual = 5.7515846e-06, Final residual = 6.0428938e-07, No Iterations 3
time step continuity errors : sum local = 3.1927076e-09, global = 2.1422013e-11, cumulative = -1.0409965e-09
ExecutionTime = 70.55 s  ClockTime = 70 s

fieldMinMax minmaxdomain output:
    min(p) = 0 at location (-0.000525 0 0.216)
    max(p) = 19.036733 at location (-0.0014503614 0.00014395118 0.0015)
    min(U) = (-0.0073982862 -0.07118309 1.3378807) at location (0.00010410184 0.0011123239 0.0015)
    max(U) = (0.045851075 0.036622718 1.4612485) at location (-0.0006310689 -0.00050894412 0.0015)

Time = 0.016

Courant Number mean: 0.24305181 max: 0.59916162
smoothSolver:  Solving for Ux, Initial residual = 0.0017825372, Final residual = 8.7670344e-09, No Iterations 9
smoothSolver:  Solving for Uy, Initial residual = 0.0017822814, Final residual = 8.6469418e-09, No Iterations 9
smoothSolver:  Solving for Uz, Initial residual = 0.00098684086, Final residual = 9.8830355e-09, No Iterations 9
FDICPCG:  Solving for p, Initial residual = 0.0001529824, Final residual = 1.2388478e-06, No Iterations 597
FDICPCG:  Solving for p, Initial residual = 8.8815402e-06, Final residual = 7.3319118e-07, No Iterations 3
time step continuity errors : sum local = 3.8524156e-09, global = -2.2646446e-11, cumulative = -1.063643e-09
FDICPCG:  Solving for p, Initial residual = 8.0162115e-05, Final residual = 7.0766211e-07, No Iterations 590
FDICPCG:  Solving for p, Initial residual = 5.1376811e-06, Final residual = 9.6202671e-07, No Iterations 2
time step continuity errors : sum local = 5.0720573e-09, global = 1.0273775e-11, cumulative = -1.0533692e-09
ExecutionTime = 72.66 s  ClockTime = 73 s

fieldMinMax minmaxdomain output:
    min(p) = 0 at location (-0.000525 0 0.216)
    max(p) = 18.998257 at location (-0.0014503614 0.00014395118 0.0015)
    min(U) = (-0.0073987408 -0.071189353 1.3378831) at location (0.00010410184 0.0011123239 0.0015)
    max(U) = (0.045862919 0.03663221 1.4613647) at location (-0.0006310689 -0.00050894412 0.0015)

Time = 0.0165

Courant Number mean: 0.24306889 max: 0.59918773
smoothSolver:  Solving for Ux, Initial residual = 0.0016232787, Final residual = 7.9377508e-09, No Iterations 9
smoothSolver:  Solving for Uy, Initial residual = 0.0016230095, Final residual = 7.8172672e-09, No Iterations 9
smoothSolver:  Solving for Uz, Initial residual = 0.00089594034, Final residual = 8.9688605e-09, No Iterations 9
FDICPCG:  Solving for p, Initial residual = 0.00013951791, Final residual = 1.0546692e-06, No Iterations 597
FDICPCG:  Solving for p, Initial residual = 7.8866681e-06, Final residual = 6.2444373e-07, No Iterations 3
time step continuity errors : sum local = 3.2757385e-09, global = -1.3674751e-11, cumulative = -1.067044e-09
FDICPCG:  Solving for p, Initial residual = 7.256705e-05, Final residual = 9.7549835e-07, No Iterations 589
FDICPCG:  Solving for p, Initial residual = 4.7710181e-06, Final residual = 8.8974307e-07, No Iterations 2
time step continuity errors : sum local = 4.681965e-09, global = 1.7981286e-11, cumulative = -1.0490627e-09
ExecutionTime = 74.11 s  ClockTime = 74 s

fieldMinMax minmaxdomain output:
    min(p) = 0 at location (-0.000525 0 0.216)
    max(p) = 18.963468 at location (-0.0014503614 0.00014395118 0.0015)
    min(U) = (-0.0073991096 -0.071194522 1.3378908) at location (0.00010410184 0.0011123239 0.0015)
    max(U) = (0.045872636 0.036639981 1.4614664) at location (-0.0006310689 -0.00050894412 0.0015)

Time = 0.017

Courant Number mean: 0.24308452 max: 0.59920929
smoothSolver:  Solving for Ux, Initial residual = 0.0014704739, Final residual = 7.2023965e-09, No Iterations 9
smoothSolver:  Solving for Uy, Initial residual = 0.001470356, Final residual = 7.0922332e-09, No Iterations 9
smoothSolver:  Solving for Uz, Initial residual = 0.00081348184, Final residual = 8.1416371e-09, No Iterations 9
FDICPCG:  Solving for p, Initial residual = 0.00012654551, Final residual = 9.3656928e-07, No Iterations 597
FDICPCG:  Solving for p, Initial residual = 7.0968264e-06, Final residual = 5.5086505e-07, No Iterations 3
time step continuity errors : sum local = 2.8855126e-09, global = -7.2364418e-12, cumulative = -1.0562991e-09
FDICPCG:  Solving for p, Initial residual = 6.5677773e-05, Final residual = 6.4409271e-07, No Iterations 590
FDICPCG:  Solving for p, Initial residual = 4.1733447e-06, Final residual = 7.8049103e-07, No Iterations 2
time step continuity errors : sum local = 4.0998938e-09, global = 1.5353413e-11, cumulative = -1.0409457e-09
ExecutionTime = 76.02 s  ClockTime = 76 s

fieldMinMax minmaxdomain output:
    min(p) = 0 at location (-0.000525 0 0.216)
    max(p) = 18.931992 at location (0.0014503614 -0.00014395118 0.0015)
    min(U) = (-0.0073994082 -0.071198742 1.3379019) at location (0.00010410184 0.0011123239 0.0015)
    max(U) = (0.045880489 0.036646255 1.4615557) at location (-0.0006310689 -0.00050894412 0.0015)

Time = 0.0175

Courant Number mean: 0.2430988 max: 0.5992269
smoothSolver:  Solving for Ux, Initial residual = 0.0013274112, Final residual = 6.5314845e-09, No Iterations 9
smoothSolver:  Solving for Uy, Initial residual = 0.0013272308, Final residual = 6.4328746e-09, No Iterations 9
smoothSolver:  Solving for Uz, Initial residual = 0.00073875163, Final residual = 7.3921966e-09, No Iterations 9
FDICPCG:  Solving for p, Initial residual = 0.00011518081, Final residual = 1.0198132e-06, No Iterations 590
FDICPCG:  Solving for p, Initial residual = 6.4585501e-06, Final residual = 7.6996198e-07, No Iterations 3
time step continuity errors : sum local = 4.0277735e-09, global = -6.4970428e-12, cumulative = -1.0474427e-09
FDICPCG:  Solving for p, Initial residual = 5.9511391e-05, Final residual = 9.888664e-07, No Iterations 583
FDICPCG:  Solving for p, Initial residual = 4.0041628e-06, Final residual = 9.5452062e-07, No Iterations 2
time step continuity errors : sum local = 5.0060907e-09, global = 7.7797598e-11, cumulative = -9.6964515e-10
ExecutionTime = 77.87 s  ClockTime = 78 s

fieldMinMax minmaxdomain output:
    min(p) = 0 at location (-0.000525 0 0.216)
    max(p) = 18.903497 at location (-0.0014503614 0.00014395118 0.0015)
    min(U) = (-0.0073996479 -0.071202157 1.3379149) at location (0.00010410184 0.0011123239 0.0015)
    max(U) = (0.045886758 0.03665126 1.4616339) at location (-0.0006310689 -0.00050894412 0.0015)

Time = 0.018

Courant Number mean: 0.24311184 max: 0.59924116
smoothSolver:  Solving for Ux, Initial residual = 0.0012081592, Final residual = 5.9309306e-09, No Iterations 9
smoothSolver:  Solving for Uy, Initial residual = 0.0012080719, Final residual = 5.8363369e-09, No Iterations 9
smoothSolver:  Solving for Uz, Initial residual = 0.00067111065, Final residual = 6.7124148e-09, No Iterations 9
FDICPCG:  Solving for p, Initial residual = 0.00010510528, Final residual = 8.2736097e-07, No Iterations 590
FDICPCG:  Solving for p, Initial residual = 5.7486393e-06, Final residual = 6.4022482e-07, No Iterations 3
time step continuity errors : sum local = 3.3450125e-09, global = -2.3845748e-11, cumulative = -9.934909e-10
FDICPCG:  Solving for p, Initial residual = 5.4292005e-05, Final residual = 7.1671316e-07, No Iterations 583
FDICPCG:  Solving for p, Initial residual = 3.4792251e-06, Final residual = 7.7216634e-07, No Iterations 2
time step continuity errors : sum local = 4.0438465e-09, global = 6.3093876e-11, cumulative = -9.3039702e-10
ExecutionTime = 79.97 s  ClockTime = 80 s

fieldMinMax minmaxdomain output:
    min(p) = 0 at location (-0.000525 0 0.216)
    max(p) = 18.877686 at location (0.0014503614 0.00014395118 0.0015)
    min(U) = (-0.0073998457 -0.071204904 1.3379284) at location (0.00010410184 0.0011123239 0.0015)
    max(U) = (0.045891708 0.036655217 1.4617022) at location (-0.0006310689 -0.00050894412 0.0015)

Time = 0.0185

Courant Number mean: 0.24312378 max: 0.59925265
smoothSolver:  Solving for Ux, Initial residual = 0.0011035302, Final residual = 5.3879621e-09, No Iterations 9
smoothSolver:  Solving for Uy, Initial residual = 0.00110341, Final residual = 5.2978061e-09, No Iterations 9
smoothSolver:  Solving for Uz, Initial residual = 0.00060980264, Final residual = 6.0960126e-09, No Iterations 9
FDICPCG:  Solving for p, Initial residual = 9.5171675e-05, Final residual = 8.1569337e-07, No Iterations 589
FDICPCG:  Solving for p, Initial residual = 5.1239419e-06, Final residual = 9.438987e-07, No Iterations 2
time step continuity errors : sum local = 4.9261309e-09, global = -3.6924784e-11, cumulative = -9.6732181e-10
FDICPCG:  Solving for p, Initial residual = 4.9322191e-05, Final residual = 6.1905645e-07, No Iterations 583
FDICPCG:  Solving for p, Initial residual = 3.0838966e-06, Final residual = 6.7100978e-07, No Iterations 2
time step continuity errors : sum local = 3.5094428e-09, global = 3.4269007e-11, cumulative = -9.330528e-10
ExecutionTime = 81.97 s  ClockTime = 82 s

fieldMinMax minmaxdomain output:
    min(p) = 0 at location (-0.000525 0 0.216)
    max(p) = 18.854297 at location (-0.0014503614 0.00014395118 0.0015)
    min(U) = (-0.007400003 -0.071207104 1.3379415) at location (0.00010410184 0.0011123239 0.0015)
    max(U) = (0.045895596 0.036658322 1.4617617) at location (-0.0006310689 -0.00050894412 0.0015)

Time = 0.019

Courant Number mean: 0.24313469 max: 0.59926187
smoothSolver:  Solving for Ux, Initial residual = 0.001003959, Final residual = 4.8970914e-09, No Iterations 9
smoothSolver:  Solving for Uy, Initial residual = 0.0010038636, Final residual = 4.8173373e-09, No Iterations 9
smoothSolver:  Solving for Uz, Initial residual = 0.000554149, Final residual = 5.5369572e-09, No Iterations 9
FDICPCG:  Solving for p, Initial residual = 8.6720869e-05, Final residual = 9.3975989e-07, No Iterations 589
FDICPCG:  Solving for p, Initial residual = 4.7028796e-06, Final residual = 9.1515187e-07, No Iterations 2
time step continuity errors : sum local = 4.7712485e-09, global = -1.3755909e-11, cumulative = -9.4680871e-10
FDICPCG:  Solving for p, Initial residual = 4.4795737e-05, Final residual = 9.1913765e-07, No Iterations 582
FDICPCG:  Solving for p, Initial residual = 2.9792364e-06, Final residual = 6.4360866e-07, No Iterations 2
time step continuity errors : sum local = 3.3620785e-09, global = 3.5740978e-11, cumulative = -9.1106773e-10
ExecutionTime = 83.92 s  ClockTime = 84 s

fieldMinMax minmaxdomain output:
    min(p) = 0 at location (-0.000525 0 0.216)
    max(p) = 18.833094 at location (0.0014503614 -0.00014395118 0.0015)
    min(U) = (-0.0074001346 -0.071208866 1.3379535) at location (0.00010410184 0.0011123239 0.0015)
    max(U) = (0.045898638 0.036660757 1.4618131) at location (-0.0006310689 -0.00050894412 0.0015)

Time = 0.0195

Courant Number mean: 0.24314468 max: 0.59926927
smoothSolver:  Solving for Ux, Initial residual = 0.00091472685, Final residual = 4.4591712e-09, No Iterations 9
smoothSolver:  Solving for Uy, Initial residual = 0.0009146222, Final residual = 4.3810444e-09, No Iterations 9
smoothSolver:  Solving for Uz, Initial residual = 0.00050366725, Final residual = 5.0298427e-09, No Iterations 9
FDICPCG:  Solving for p, Initial residual = 7.9822961e-05, Final residual = 8.1536646e-07, No Iterations 589
FDICPCG:  Solving for p, Initial residual = 4.2258835e-06, Final residual = 8.2194392e-07, No Iterations 2
time step continuity errors : sum local = 4.2813193e-09, global = -2.057228e-11, cumulative = -9.3164001e-10
FDICPCG:  Solving for p, Initial residual = 4.0653621e-05, Final residual = 8.1995326e-07, No Iterations 583
FDICPCG:  Solving for p, Initial residual = 2.7280411e-06, Final residual = 7.0308495e-07, No Iterations 2
time step continuity errors : sum local = 3.6687327e-09, global = -2.0527015e-11, cumulative = -9.5216703e-10
ExecutionTime = 86.2 s  ClockTime = 86 s

fieldMinMax minmaxdomain output:
    min(p) = 0 at location (-0.000525 0 0.216)
    max(p) = 18.813866 at location (-0.0014503614 0.00014395118 0.0015)
    min(U) = (-0.0074002426 -0.071210279 1.3379642) at location (0.00010410184 0.0011123239 0.0015)
    max(U) = (0.045901022 0.036662668 1.4618572) at location (-0.0006310689 -0.00050894412 0.0015)

Time = 0.02

Courant Number mean: 0.2431538 max: 0.59927522
smoothSolver:  Solving for Ux, Initial residual = 0.00083933086, Final residual = 4.0626854e-09, No Iterations 9
smoothSolver:  Solving for Uy, Initial residual = 0.00083928885, Final residual = 3.9918594e-09, No Iterations 9
smoothSolver:  Solving for Uz, Initial residual = 0.0004578453, Final residual = 4.5694647e-09, No Iterations 9
FDICPCG:  Solving for p, Initial residual = 7.3225202e-05, Final residual = 9.5588752e-07, No Iterations 589
FDICPCG:  Solving for p, Initial residual = 3.9885639e-06, Final residual = 8.2540329e-07, No Iterations 2
time step continuity errors : sum local = 4.2956959e-09, global = 2.9609004e-11, cumulative = -9.2255802e-10
FDICPCG:  Solving for p, Initial residual = 3.7191083e-05, Final residual = 7.6533774e-07, No Iterations 583
FDICPCG:  Solving for p, Initial residual = 2.493696e-06, Final residual = 6.3803206e-07, No Iterations 2
time step continuity errors : sum local = 3.3259453e-09, global = -4.5426942e-11, cumulative = -9.6798496e-10
ExecutionTime = 87.65 s  ClockTime = 88 s

fieldMinMax minmaxdomain output:
    min(p) = 0 at location (-0.000525 0 0.216)
    max(p) = 18.796424 at location (0.0014503614 -0.00014395118 0.0015)
    min(U) = (-0.0074003345 -0.071211419 1.3379732) at location (0.00010410184 0.0011123239 0.0015)
    max(U) = (0.045902905 0.036664182 1.461895) at location (-0.0006310689 -0.00050894412 0.0015)

Time = 0.0205

Courant Number mean: 0.24316215 max: 0.59928003
smoothSolver:  Solving for Ux, Initial residual = 0.00076898456, Final residual = 3.700541e-09, No Iterations 9
smoothSolver:  Solving for Uy, Initial residual = 0.00076890704, Final residual = 3.6376831e-09, No Iterations 9
smoothSolver:  Solving for Uz, Initial residual = 0.00041619995, Final residual = 4.1517477e-09, No Iterations 9
FDICPCG:  Solving for p, Initial residual = 6.7046346e-05, Final residual = 9.8246118e-07, No Iterations 593
FDICPCG:  Solving for p, Initial residual = 3.7471325e-06, Final residual = 8.6054077e-07, No Iterations 2
time step continuity errors : sum local = 4.4751011e-09, global = 3.1142333e-11, cumulative = -9.3684263e-10
FDICPCG:  Solving for p, Initial residual = 3.407612e-05, Final residual = 9.0996229e-07, No Iterations 582
FDICPCG:  Solving for p, Initial residual = 2.4103679e-06, Final residual = 5.3327071e-07, No Iterations 2
time step continuity errors : sum local = 2.7772993e-09, global = -9.4558157e-12, cumulative = -9.4629845e-10
ExecutionTime = 89.38 s  ClockTime = 89 s

fieldMinMax minmaxdomain output:
    min(p) = 0 at location (-0.000525 0 0.216)
    max(p) = 18.780599 at location (-0.00014395118 0.0014503614 0.0015)
    min(U) = (-0.0074004108 -0.071212349 1.3379807) at location (0.00010410184 0.0011123239 0.0015)
    max(U) = (0.045904412 0.036665397 1.4619271) at location (-0.0006310689 -0.00050894412 0.0015)

Time = 0.021

Courant Number mean: 0.24316978 max: 0.59928397
smoothSolver:  Solving for Ux, Initial residual = 0.00070105945, Final residual = 3.3733214e-09, No Iterations 9
smoothSolver:  Solving for Uy, Initial residual = 0.00070099242, Final residual = 3.3185332e-09, No Iterations 9
smoothSolver:  Solving for Uz, Initial residual = 0.00037836083, Final residual = 3.7722685e-09, No Iterations 9
FDICPCG:  Solving for p, Initial residual = 6.1238057e-05, Final residual = 9.7080219e-07, No Iterations 593
FDICPCG:  Solving for p, Initial residual = 3.4776249e-06, Final residual = 8.0124642e-07, No Iterations 2
time step continuity errors : sum local = 4.1638087e-09, global = 3.019436e-11, cumulative = -9.1610409e-10
FDICPCG:  Solving for p, Initial residual = 3.0936013e-05, Final residual = 6.451347e-07, No Iterations 583
FDICPCG:  Solving for p, Initial residual = 2.0936276e-06, Final residual = 5.264343e-07, No Iterations 2
time step continuity errors : sum local = 2.7394045e-09, global = -3.6969058e-11, cumulative = -9.5307314e-10
ExecutionTime = 90.61 s  ClockTime = 91 s

fieldMinMax minmaxdomain output:
    min(p) = 0 at location (-0.000525 0 0.216)
    max(p) = 18.766236 at location (-0.0014503614 -0.00014395118 0.0015)
    min(U) = (-0.0074004752 -0.071213115 1.3379866) at location (0.00010410184 0.0011123239 0.0015)
    max(U) = (0.045905639 0.036666387 1.4619543) at location (-0.0006310689 -0.00050894412 0.0015)

Time = 0.0215

Courant Number mean: 0.24317676 max: 0.59928721
smoothSolver:  Solving for Ux, Initial residual = 0.00063748791, Final residual = 3.0820896e-09, No Iterations 9
smoothSolver:  Solving for Uy, Initial residual = 0.00063730171, Final residual = 3.0255765e-09, No Iterations 9
smoothSolver:  Solving for Uz, Initial residual = 0.00034402901, Final residual = 3.4277106e-09, No Iterations 9
FDICPCG:  Solving for p, Initial residual = 5.5654284e-05, Final residual = 9.6921338e-07, No Iterations 590
FDICPCG:  Solving for p, Initial residual = 3.1977659e-06, Final residual = 7.3514792e-07, No Iterations 2
time step continuity errors : sum local = 3.8178563e-09, global = 3.5310786e-11, cumulative = -9.1776236e-10
FDICPCG:  Solving for p, Initial residual = 2.8165891e-05, Final residual = 9.5436637e-07, No Iterations 572
FDICPCG:  Solving for p, Initial residual = 2.1536361e-06, Final residual = 6.1135506e-07, No Iterations 2
time step continuity errors : sum local = 3.1788812e-09, global = 1.3245096e-12, cumulative = -9.1643785e-10
ExecutionTime = 92.35 s  ClockTime = 92 s

fieldMinMax minmaxdomain output:
    min(p) = 0 at location (-0.000525 0 0.216)
    max(p) = 18.753199 at location (0.00014395118 -0.0014503614 0.0015)
    min(U) = (-0.0074005313 -0.071213755 1.3379913) at location (0.00010410184 0.0011123239 0.0015)
    max(U) = (0.045906657 0.036667213 1.4619772) at location (-0.0006310689 -0.00050894412 0.0015)

Time = 0.022

Courant Number mean: 0.24318315 max: 0.59928993
smoothSolver:  Solving for Ux, Initial residual = 0.00058561828, Final residual = 2.810096e-09, No Iterations 9
smoothSolver:  Solving for Uy, Initial residual = 0.00058552952, Final residual = 9.9990026e-09, No Iterations 8
smoothSolver:  Solving for Uz, Initial residual = 0.00031282258, Final residual = 3.1148645e-09, No Iterations 9
FDICPCG:  Solving for p, Initial residual = 5.0773234e-05, Final residual = 9.4591767e-07, No Iterations 590
FDICPCG:  Solving for p, Initial residual = 3.007248e-06, Final residual = 6.7812589e-07, No Iterations 2
time step continuity errors : sum local = 3.5196505e-09, global = 4.669259e-11, cumulative = -8.6974526e-10
FDICPCG:  Solving for p, Initial residual = 2.5886254e-05, Final residual = 8.4665502e-07, No Iterations 582
FDICPCG:  Solving for p, Initial residual = 1.9623421e-06, Final residual = 9.0807966e-07, No Iterations 1
time step continuity errors : sum local = 4.7184821e-09, global = -2.9592098e-12, cumulative = -8.7270447e-10
ExecutionTime = 93.75 s  ClockTime = 94 s

fieldMinMax minmaxdomain output:
    min(p) = 0 at location (-0.000525 0 0.216)
    max(p) = 18.741363 at location (-0.00014395118 0.0014503614 0.0015)
    min(U) = (-0.0074005782 -0.071214297 1.3379949) at location (0.00010410184 0.0011123239 0.0015)
    max(U) = (0.045907522 0.036667912 1.4619964) at location (-0.0006310689 -0.00050894412 0.0015)

Time = 0.0225

Courant Number mean: 0.24318899 max: 0.59929223
smoothSolver:  Solving for Ux, Initial residual = 0.00053715646, Final residual = 9.2508723e-09, No Iterations 8
smoothSolver:  Solving for Uy, Initial residual = 0.00053721047, Final residual = 9.1224256e-09, No Iterations 8
smoothSolver:  Solving for Uz, Initial residual = 0.00028443689, Final residual = 9.4314505e-09, No Iterations 8
FDICPCG:  Solving for p, Initial residual = 4.6495217e-05, Final residual = 9.7837681e-07, No Iterations 588
FDICPCG:  Solving for p, Initial residual = 2.7408168e-06, Final residual = 5.8407379e-07, No Iterations 2
time step continuity errors : sum local = 3.029871e-09, global = 1.9718479e-11, cumulative = -8.5298599e-10
FDICPCG:  Solving for p, Initial residual = 2.3513006e-05, Final residual = 8.4735059e-07, No Iterations 576
FDICPCG:  Solving for p, Initial residual = 1.8114974e-06, Final residual = 8.8805072e-07, No Iterations 1
time step continuity errors : sum local = 4.6114804e-09, global = -5.8418803e-11, cumulative = -9.1140479e-10
ExecutionTime = 94.93 s  ClockTime = 95 s

fieldMinMax minmaxdomain output:
    min(p) = 0 at location (-0.000525 0 0.216)
    max(p) = 18.730617 at location (0.00014395118 0.0014503614 0.0015)
    min(U) = (-0.0074006216 -0.071214762 1.3379976) at location (0.00010410184 0.0011123239 0.0015)
    max(U) = (0.045908266 0.036668517 1.4620126) at location (-0.0006310689 -0.00050894412 0.0015)

Time = 0.023

Courant Number mean: 0.24319434 max: 0.5992942
smoothSolver:  Solving for Ux, Initial residual = 0.00049083932, Final residual = 8.4468622e-09, No Iterations 8
smoothSolver:  Solving for Uy, Initial residual = 0.00049074393, Final residual = 8.3381393e-09, No Iterations 8
smoothSolver:  Solving for Uz, Initial residual = 0.00025866302, Final residual = 8.5721833e-09, No Iterations 8
FDICPCG:  Solving for p, Initial residual = 4.2637811e-05, Final residual = 6.5773594e-07, No Iterations 589
FDICPCG:  Solving for p, Initial residual = 2.3844148e-06, Final residual = 4.8904495e-07, No Iterations 2
time step continuity errors : sum local = 2.5356675e-09, global = 2.1636039e-11, cumulative = -8.8976875e-10
FDICPCG:  Solving for p, Initial residual = 2.1387531e-05, Final residual = 7.477391e-07, No Iterations 582
FDICPCG:  Solving for p, Initial residual = 1.6445199e-06, Final residual = 7.3987596e-07, No Iterations 1
time step continuity errors : sum local = 3.8398084e-09, global = -1.3648045e-12, cumulative = -8.9113356e-10
ExecutionTime = 96.2 s  ClockTime = 96 s

fieldMinMax minmaxdomain output:
    min(p) = 0 at location (-0.000525 0 0.216)
    max(p) = 18.720858 at location (-0.00014395118 0.0014503614 0.0015)
    min(U) = (-0.0074006571 -0.071215164 1.3379996) at location (0.00010410184 0.0011123239 0.0015)
    max(U) = (0.045908923 0.036669049 1.4620263) at location (-0.0006310689 -0.00050894412 0.0015)

Time = 0.0235

Courant Number mean: 0.24319923 max: 0.59929591
smoothSolver:  Solving for Ux, Initial residual = 0.00044794404, Final residual = 7.6969359e-09, No Iterations 8
smoothSolver:  Solving for Uy, Initial residual = 0.00044787957, Final residual = 7.606661e-09, No Iterations 8
smoothSolver:  Solving for Uz, Initial residual = 0.00023524892, Final residual = 7.7910347e-09, No Iterations 8
FDICPCG:  Solving for p, Initial residual = 3.9136317e-05, Final residual = 8.6754174e-07, No Iterations 583
FDICPCG:  Solving for p, Initial residual = 2.3532355e-06, Final residual = 6.5901443e-07, No Iterations 2
time step continuity errors : sum local = 3.4154209e-09, global = 5.0611619e-11, cumulative = -8.4052194e-10
FDICPCG:  Solving for p, Initial residual = 1.9513558e-05, Final residual = 8.4198904e-07, No Iterations 581
FDICPCG:  Solving for p, Initial residual = 1.6159603e-06, Final residual = 7.6999295e-07, No Iterations 1
time step continuity errors : sum local = 3.9939953e-09, global = -7.4029031e-12, cumulative = -8.4792484e-10
ExecutionTime = 98.04 s  ClockTime = 98 s

fieldMinMax minmaxdomain output:
    min(p) = 0 at location (-0.000525 0 0.216)
    max(p) = 18.711995 at location (-0.0014503614 -0.00014395118 0.0015)
    min(U) = (-0.007400689 -0.071215517 1.3380011) at location (0.00010410184 0.0011123239 0.0015)
    max(U) = (0.045909507 0.036669524 1.4620378) at location (-0.0006310689 -0.00050894412 0.0015)

Time = 0.024

Courant Number mean: 0.2432037 max: 0.59929741
smoothSolver:  Solving for Ux, Initial residual = 0.00041150654, Final residual = 7.0354114e-09, No Iterations 8
smoothSolver:  Solving for Uy, Initial residual = 0.00041145753, Final residual = 6.9429271e-09, No Iterations 8
smoothSolver:  Solving for Uz, Initial residual = 0.00021393309, Final residual = 7.0813532e-09, No Iterations 8
FDICPCG:  Solving for p, Initial residual = 3.6114554e-05, Final residual = 9.7668147e-07, No Iterations 580
FDICPCG:  Solving for p, Initial residual = 2.3074015e-06, Final residual = 5.4107751e-07, No Iterations 2
time step continuity errors : sum local = 2.8030548e-09, global = 1.6421538e-11, cumulative = -8.3150331e-10
FDICPCG:  Solving for p, Initial residual = 1.7849953e-05, Final residual = 9.9432384e-07, No Iterations 575
FDICPCG:  Solving for p, Initial residual = 1.6333881e-06, Final residual = 7.6914346e-07, No Iterations 1
time step continuity errors : sum local = 3.9876627e-09, global = -3.6721589e-12, cumulative = -8.3517546e-10
ExecutionTime = 99.79 s  ClockTime = 100 s

fieldMinMax minmaxdomain output:
    min(p) = 0 at location (-0.000525 0 0.216)
    max(p) = 18.703945 at location (-0.00014395118 -0.0014503614 0.0015)
    min(U) = (-0.0074007152 -0.071215823 1.3380022) at location (0.00010410184 0.0011123239 0.0015)
    max(U) = (0.045910023 0.036669941 1.4620476) at location (-0.0006310689 -0.00050894412 0.0015)

Time = 0.0245

Courant Number mean: 0.2432078 max: 0.5992987
smoothSolver:  Solving for Ux, Initial residual = 0.00037693648, Final residual = 6.4304211e-09, No Iterations 8
smoothSolver:  Solving for Uy, Initial residual = 0.00037705746, Final residual = 6.3501542e-09, No Iterations 8
smoothSolver:  Solving for Uz, Initial residual = 0.0001945385, Final residual = 6.4365735e-09, No Iterations 8
FDICPCG:  Solving for p, Initial residual = 3.3127184e-05, Final residual = 7.2328513e-07, No Iterations 582
FDICPCG:  Solving for p, Initial residual = 1.9701981e-06, Final residual = 9.0227918e-07, No Iterations 1
time step continuity errors : sum local = 4.6725194e-09, global = 2.2937174e-11, cumulative = -8.1223829e-10
FDICPCG:  Solving for p, Initial residual = 1.6366448e-05, Final residual = 7.403175e-07, No Iterations 573
FDICPCG:  Solving for p, Initial residual = 1.3752148e-06, Final residual = 7.2046126e-07, No Iterations 1
time step continuity errors : sum local = 3.7336205e-09, global = -1.2749007e-11, cumulative = -8.249873e-10
ExecutionTime = 101.01 s  ClockTime = 101 s

fieldMinMax minmaxdomain output:
    min(p) = 0 at location (-0.000525 0 0.216)
    max(p) = 18.696632 at location (0.00014395118 -0.0014503614 0.0015)
    min(U) = (-0.0074007398 -0.071216094 1.3380031) at location (0.00010410184 0.0011123239 0.0015)
    max(U) = (0.045910487 0.036670317 1.4620558) at location (-0.0006310689 -0.00050894412 0.0015)

Time = 0.025

Courant Number mean: 0.24321154 max: 0.59929984
smoothSolver:  Solving for Ux, Initial residual = 0.0003440621, Final residual = 5.8738125e-09, No Iterations 8
smoothSolver:  Solving for Uy, Initial residual = 0.00034384141, Final residual = 5.8057059e-09, No Iterations 8
smoothSolver:  Solving for Uz, Initial residual = 0.00017693138, Final residual = 5.850335e-09, No Iterations 8
FDICPCG:  Solving for p, Initial residual = 3.0424018e-05, Final residual = 9.08428e-07, No Iterations 581
FDICPCG:  Solving for p, Initial residual = 2.0117998e-06, Final residual = 9.1639208e-07, No Iterations 1
time step continuity errors : sum local = 4.7439928e-09, global = 1.5195308e-11, cumulative = -8.0979199e-10
FDICPCG:  Solving for p, Initial residual = 1.4970727e-05, Final residual = 9.9570064e-07, No Iterations 572
FDICPCG:  Solving for p, Initial residual = 1.5497217e-06, Final residual = 7.9450045e-07, No Iterations 1
time step continuity errors : sum local = 4.1156559e-09, global = 3.9603706e-12, cumulative = -8.0583162e-10
ExecutionTime = 102.7 s  ClockTime = 103 s

fieldMinMax minmaxdomain output:
    min(p) = 0 at location (-0.000525 0 0.216)
    max(p) = 18.68999 at location (-0.0014503614 0.00014395118 0.0015)
    min(U) = (-0.0074007567 -0.071216331 1.3380039) at location (0.00010410184 0.0011123239 0.0015)
    max(U) = (0.045910904 0.03667065 1.4620629) at location (-0.0006310689 -0.00050894412 0.0015)

Time = 0.0255

Courant Number mean: 0.24321497 max: 0.59930085
smoothSolver:  Solving for Ux, Initial residual = 0.00031522804, Final residual = 5.3786246e-09, No Iterations 8
smoothSolver:  Solving for Uy, Initial residual = 0.00031519255, Final residual = 5.3068616e-09, No Iterations 8
smoothSolver:  Solving for Uz, Initial residual = 0.00016091362, Final residual = 5.3172933e-09, No Iterations 8
FDICPCG:  Solving for p, Initial residual = 2.7917641e-05, Final residual = 8.4170525e-07, No Iterations 581
FDICPCG:  Solving for p, Initial residual = 1.8951543e-06, Final residual = 8.6232097e-07, No Iterations 1
time step continuity errors : sum local = 4.462692e-09, global = -2.0471361e-12, cumulative = -8.0787875e-10
FDICPCG:  Solving for p, Initial residual = 1.3812725e-05, Final residual = 9.3134035e-07, No Iterations 567
FDICPCG:  Solving for p, Initial residual = 1.4414356e-06, Final residual = 7.0078327e-07, No Iterations 1
time step continuity errors : sum local = 3.6288506e-09, global = -3.5040571e-11, cumulative = -8.4291933e-10
ExecutionTime = 104.08 s  ClockTime = 104 s

fieldMinMax minmaxdomain output:
    min(p) = 0 at location (-0.000525 0 0.216)
    max(p) = 18.683956 at location (-0.00014395118 0.0014503614 0.0015)
    min(U) = (-0.0074007751 -0.071216541 1.3380046) at location (0.00010410184 0.0011123239 0.0015)
    max(U) = (0.045911268 0.036670944 1.462069) at location (-0.0006310689 -0.00050894412 0.0015)

Time = 0.026

Courant Number mean: 0.2432181 max: 0.59930173
smoothSolver:  Solving for Ux, Initial residual = 0.00028850096, Final residual = 4.9094345e-09, No Iterations 8
smoothSolver:  Solving for Uy, Initial residual = 0.00028848128, Final residual = 4.8418443e-09, No Iterations 8
smoothSolver:  Solving for Uz, Initial residual = 0.00014633249, Final residual = 4.8330283e-09, No Iterations 8
FDICPCG:  Solving for p, Initial residual = 2.5599901e-05, Final residual = 5.9883984e-07, No Iterations 582
FDICPCG:  Solving for p, Initial residual = 1.5828116e-06, Final residual = 7.099113e-07, No Iterations 1
time step continuity errors : sum local = 3.6729014e-09, global = -3.2731217e-12, cumulative = -8.4619245e-10
FDICPCG:  Solving for p, Initial residual = 1.2461095e-05, Final residual = 8.9671473e-07, No Iterations 572
FDICPCG:  Solving for p, Initial residual = 1.3390531e-06, Final residual = 6.9141445e-07, No Iterations 1
time step continuity errors : sum local = 3.5791376e-09, global = 2.0017367e-11, cumulative = -8.2617508e-10
ExecutionTime = 105.78 s  ClockTime = 106 s

fieldMinMax minmaxdomain output:
    min(p) = 0 at location (-0.000525 0 0.216)
    max(p) = 18.678474 at location (0.0014503614 -0.00014395118 0.0015)
    min(U) = (-0.0074007934 -0.071216722 1.3380051) at location (0.00010410184 0.0011123239 0.0015)
    max(U) = (0.045911589 0.036671202 1.4620742) at location (-0.0006310689 -0.00050894412 0.0015)

Time = 0.0265

Courant Number mean: 0.24322096 max: 0.59930249
smoothSolver:  Solving for Ux, Initial residual = 0.00026384288, Final residual = 4.4905954e-09, No Iterations 8
smoothSolver:  Solving for Uy, Initial residual = 0.00026358531, Final residual = 4.429567e-09, No Iterations 8
smoothSolver:  Solving for Uz, Initial residual = 0.0001330777, Final residual = 4.3930221e-09, No Iterations 8
FDICPCG:  Solving for p, Initial residual = 2.3572999e-05, Final residual = 6.7232734e-07, No Iterations 582
FDICPCG:  Solving for p, Initial residual = 1.5713838e-06, Final residual = 7.2708522e-07, No Iterations 1
time step continuity errors : sum local = 3.7607833e-09, global = -4.5115209e-11, cumulative = -8.7129029e-10
FDICPCG:  Solving for p, Initial residual = 1.1460798e-05, Final residual = 9.2520907e-07, No Iterations 565
FDICPCG:  Solving for p, Initial residual = 1.3223839e-06, Final residual = 7.5955826e-07, No Iterations 1
time step continuity errors : sum local = 3.9306852e-09, global = -9.0924127e-12, cumulative = -8.803827e-10
ExecutionTime = 107.88 s  ClockTime = 108 s

fieldMinMax minmaxdomain output:
    min(p) = 0 at location (-0.000525 0 0.216)
    max(p) = 18.673494 at location (0.0014503614 0.00014395118 0.0015)
    min(U) = (-0.0074008074 -0.071216878 1.3380057) at location (0.00010410184 0.0011123239 0.0015)
    max(U) = (0.045911868 0.036671428 1.4620788) at location (-0.0006310689 -0.00050894412 0.0015)

Time = 0.027

Courant Number mean: 0.24322358 max: 0.59930315
smoothSolver:  Solving for Ux, Initial residual = 0.00024089706, Final residual = 4.0971548e-09, No Iterations 8
smoothSolver:  Solving for Uy, Initial residual = 0.00024095034, Final residual = 4.0467305e-09, No Iterations 8
smoothSolver:  Solving for Uz, Initial residual = 0.00012103402, Final residual = 3.9927471e-09, No Iterations 8
FDICPCG:  Solving for p, Initial residual = 2.1702171e-05, Final residual = 5.8238932e-07, No Iterations 582
FDICPCG:  Solving for p, Initial residual = 1.4129427e-06, Final residual = 6.4701718e-07, No Iterations 1
time step continuity errors : sum local = 3.3458492e-09, global = -1.4333119e-11, cumulative = -8.9471582e-10
FDICPCG:  Solving for p, Initial residual = 1.0548988e-05, Final residual = 9.1573698e-07, No Iterations 571
FDICPCG:  Solving for p, Initial residual = 1.2912967e-06, Final residual = 7.3727649e-07, No Iterations 1
time step continuity errors : sum local = 3.8143134e-09, global = -8.0829785e-15, cumulative = -8.947239e-10
ExecutionTime = 109.28 s  ClockTime = 109 s

fieldMinMax minmaxdomain output:
    min(p) = 0 at location (-0.000525 0 0.216)
    max(p) = 18.668969 at location (-0.0014503614 -0.00014395118 0.0015)
    min(U) = (-0.0074008164 -0.071217015 1.3380062) at location (0.00010410184 0.0011123239 0.0015)
    max(U) = (0.045912117 0.036671625 1.4620828) at location (-0.0006310689 -0.00050894412 0.0015)

Time = 0.0275

Courant Number mean: 0.24322598 max: 0.59930373
smoothSolver:  Solving for Ux, Initial residual = 0.00022120314, Final residual = 3.7563331e-09, No Iterations 8
smoothSolver:  Solving for Uy, Initial residual = 0.0002208569, Final residual = 3.7010132e-09, No Iterations 8
smoothSolver:  Solving for Uz, Initial residual = 0.00011006993, Final residual = 3.6288494e-09, No Iterations 8
FDICPCG:  Solving for p, Initial residual = 1.9941978e-05, Final residual = 9.2422889e-07, No Iterations 576
FDICPCG:  Solving for p, Initial residual = 1.6325234e-06, Final residual = 8.65469e-07, No Iterations 1
time step continuity errors : sum local = 4.4745434e-09, global = 5.974356e-12, cumulative = -8.8874955e-10
FDICPCG:  Solving for p, Initial residual = 9.7755135e-06, Final residual = 5.3837708e-07, No Iterations 575
[...]
smoothSolver:  Solving for Uz, Initial residual = 3.5601342e-09, Final residual = 3.5601342e-09, No Iterations 0
FDICPCG:  Solving for p, Initial residual = 1.8796634e-06, Final residual = 7.2299973e-07, No Iterations 1
FDICPCG:  Solving for p, Initial residual = 7.6144363e-07, Final residual = 7.6144363e-07, No Iterations 0
time step continuity errors : sum local = 3.927772e-09, global = -2.848078e-11, cumulative = 3.7150682e-07
FDICPCG:  Solving for p, Initial residual = 1.1782726e-06, Final residual = 4.7711045e-07, No Iterations 1
FDICPCG:  Solving for p, Initial residual = 4.977671e-07, Final residual = 4.977671e-07, No Iterations 0
time step continuity errors : sum local = 2.5676423e-09, global = -2.9098879e-11, cumulative = 3.7147772e-07
ExecutionTime = 276.2 s  ClockTime = 276 s

fieldMinMax minmaxdomain output:
    min(p) = 0 at location (-0.000525 0 0.216)
    max(p) = 18.624215 at location (-0.00014395118 -0.0014503614 0.0015)
    min(U) = (-0.007400883 -0.071217844 1.338011) at location (0.00010410184 0.0011123239 0.0015)
    max(U) = (0.045913565 0.036672787 1.4621097) at location (-0.0006310689 -0.00050894412 0.0015)

Time = 0.194

Courant Number mean: 0.24325134 max: 0.59930721
smoothSolver:  Solving for Ux, Initial residual = 7.3055369e-07, Final residual = 6.3629813e-09, No Iterations 3
smoothSolver:  Solving for Uy, Initial residual = 5.9537582e-07, Final residual = 4.4235235e-09, No Iterations 3
smoothSolver:  Solving for Uz, Initial residual = 2.6063585e-09, Final residual = 2.6063585e-09, No Iterations 0
FDICPCG:  Solving for p, Initial residual = 1.0381983e-06, Final residual = 5.5671615e-07, No Iterations 1
FDICPCG:  Solving for p, Initial residual = 5.6547365e-07, Final residual = 5.6547365e-07, No Iterations 0
time step continuity errors : sum local = 2.9168951e-09, global = -2.9902988e-11, cumulative = 3.7144781e-07
FDICPCG:  Solving for p, Initial residual = 8.6933013e-07, Final residual = 8.6933013e-07, No Iterations 0
FDICPCG:  Solving for p, Initial residual = 8.6933013e-07, Final residual = 8.6933013e-07, No Iterations 0
time step continuity errors : sum local = 4.4842839e-09, global = -3.0471895e-11, cumulative = 3.7141734e-07
ExecutionTime = 276.33 s  ClockTime = 277 s

fieldMinMax minmaxdomain output:
    min(p) = 0 at location (-0.000525 0 0.216)
    max(p) = 18.624215 at location (-0.0014503614 -0.00014395118 0.0015)
    min(U) = (-0.0074008828 -0.071217844 1.338011) at location (0.00010410184 0.0011123239 0.0015)
    max(U) = (0.045913565 0.036672787 1.4621097) at location (-0.0006310689 -0.00050894412 0.0015)

Time = 0.1945

Courant Number mean: 0.24325134 max: 0.59930721
smoothSolver:  Solving for Ux, Initial residual = 1.0075686e-06, Final residual = 8.0768136e-09, No Iterations 3
smoothSolver:  Solving for Uy, Initial residual = 8.4116954e-07, Final residual = 5.5248438e-09, No Iterations 3
smoothSolver:  Solving for Uz, Initial residual = 3.5433725e-09, Final residual = 3.5433725e-09, No Iterations 0
FDICPCG:  Solving for p, Initial residual = 1.8900015e-06, Final residual = 7.1352878e-07, No Iterations 1
FDICPCG:  Solving for p, Initial residual = 7.3863352e-07, Final residual = 7.3863352e-07, No Iterations 0
time step continuity errors : sum local = 3.8101099e-09, global = -3.1148262e-11, cumulative = 3.7138619e-07
FDICPCG:  Solving for p, Initial residual = 1.1827904e-06, Final residual = 4.89394e-07, No Iterations 1
FDICPCG:  Solving for p, Initial residual = 5.0642643e-07, Final residual = 5.0642643e-07, No Iterations 0
time step continuity errors : sum local = 2.61231e-09, global = -3.148398e-11, cumulative = 3.7135471e-07
ExecutionTime = 276.45 s  ClockTime = 277 s

fieldMinMax minmaxdomain output:
    min(p) = 0 at location (-0.000525 0 0.216)
    max(p) = 18.624215 at location (-0.00014395118 0.0014503614 0.0015)
    min(U) = (-0.0074008829 -0.071217844 1.338011) at location (0.00010410184 0.0011123239 0.0015)
    max(U) = (0.045913565 0.036672786 1.4621097) at location (-0.0006310689 -0.00050894412 0.0015)

Time = 0.195

Courant Number mean: 0.24325134 max: 0.59930721
smoothSolver:  Solving for Ux, Initial residual = 7.4763832e-07, Final residual = 6.482517e-09, No Iterations 3
smoothSolver:  Solving for Uy, Initial residual = 5.9113123e-07, Final residual = 4.2736788e-09, No Iterations 3
smoothSolver:  Solving for Uz, Initial residual = 2.7014237e-09, Final residual = 2.7014237e-09, No Iterations 0
FDICPCG:  Solving for p, Initial residual = 1.0521938e-06, Final residual = 5.6215399e-07, No Iterations 1
FDICPCG:  Solving for p, Initial residual = 5.7936938e-07, Final residual = 5.7936938e-07, No Iterations 0
time step continuity errors : sum local = 2.9885734e-09, global = -3.1792704e-11, cumulative = 3.7132292e-07
FDICPCG:  Solving for p, Initial residual = 8.7922104e-07, Final residual = 8.7922104e-07, No Iterations 0
FDICPCG:  Solving for p, Initial residual = 8.7922104e-07, Final residual = 8.7922104e-07, No Iterations 0
time step continuity errors : sum local = 4.5353043e-09, global = -3.1997916e-11, cumulative = 3.7129092e-07
ExecutionTime = 276.67 s  ClockTime = 277 s

fieldMinMax minmaxdomain output:
    min(p) = 0 at location (-0.000525 0 0.216)
    max(p) = 18.624215 at location (-0.0014503614 0.00014395118 0.0015)
    min(U) = (-0.0074008827 -0.071217844 1.338011) at location (0.00010410184 0.0011123239 0.0015)
    max(U) = (0.045913565 0.036672788 1.4621097) at location (-0.0006310689 -0.00050894412 0.0015)

Time = 0.1955

Courant Number mean: 0.24325134 max: 0.59930723
smoothSolver:  Solving for Ux, Initial residual = 1.0181333e-06, Final residual = 7.9957923e-09, No Iterations 3
smoothSolver:  Solving for Uy, Initial residual = 8.2874546e-07, Final residual = 5.250288e-09, No Iterations 3
smoothSolver:  Solving for Uz, Initial residual = 3.6060575e-09, Final residual = 3.6060575e-09, No Iterations 0
FDICPCG:  Solving for p, Initial residual = 1.8887622e-06, Final residual = 7.1729795e-07, No Iterations 1
FDICPCG:  Solving for p, Initial residual = 7.5437274e-07, Final residual = 7.5437274e-07, No Iterations 0
time step continuity errors : sum local = 3.8912977e-09, global = -3.2072041e-11, cumulative = 3.7125885e-07
FDICPCG:  Solving for p, Initial residual = 1.1713936e-06, Final residual = 4.5920621e-07, No Iterations 1
FDICPCG:  Solving for p, Initial residual = 4.7898606e-07, Final residual = 4.7898606e-07, No Iterations 0
time step continuity errors : sum local = 2.470764e-09, global = -3.1967867e-11, cumulative = 3.7122688e-07
ExecutionTime = 276.79 s  ClockTime = 277 s

fieldMinMax minmaxdomain output:
    min(p) = 0 at location (-0.000525 0 0.216)
    max(p) = 18.624215 at location (-0.00014395118 -0.0014503614 0.0015)
    min(U) = (-0.0074008827 -0.071217844 1.338011) at location (0.00010410184 0.0011123239 0.0015)
    max(U) = (0.045913566 0.036672787 1.4621097) at location (-0.0006310689 -0.00050894412 0.0015)

Time = 0.196

Courant Number mean: 0.24325134 max: 0.59930721
smoothSolver:  Solving for Ux, Initial residual = 7.5609576e-07, Final residual = 6.5818435e-09, No Iterations 3
smoothSolver:  Solving for Uy, Initial residual = 5.7631279e-07, Final residual = 4.1873383e-09, No Iterations 3
smoothSolver:  Solving for Uz, Initial residual = 2.6805977e-09, Final residual = 2.6805977e-09, No Iterations 0
FDICPCG:  Solving for p, Initial residual = 1.029937e-06, Final residual = 5.2414849e-07, No Iterations 1
FDICPCG:  Solving for p, Initial residual = 5.3266822e-07, Final residual = 5.3266822e-07, No Iterations 0
time step continuity errors : sum local = 2.7476737e-09, global = -3.1539797e-11, cumulative = 3.7119534e-07
FDICPCG:  Solving for p, Initial residual = 8.2948099e-07, Final residual = 8.2948099e-07, No Iterations 0
FDICPCG:  Solving for p, Initial residual = 8.2948099e-07, Final residual = 8.2948099e-07, No Iterations 0
time step continuity errors : sum local = 4.2787293e-09, global = -3.1237999e-11, cumulative = 3.711641e-07
ExecutionTime = 276.91 s  ClockTime = 277 s

fieldMinMax minmaxdomain output:
    min(p) = 0 at location (-0.000525 0 0.216)
    max(p) = 18.624215 at location (-0.0014503614 -0.00014395118 0.0015)
    min(U) = (-0.0074008828 -0.071217844 1.338011) at location (0.00010410184 0.0011123239 0.0015)
    max(U) = (0.045913565 0.036672787 1.4621097) at location (-0.0006310689 -0.00050894412 0.0015)

Time = 0.1965

Courant Number mean: 0.24325134 max: 0.59930722
smoothSolver:  Solving for Ux, Initial residual = 1.020912e-06, Final residual = 8.2096084e-09, No Iterations 3
smoothSolver:  Solving for Uy, Initial residual = 7.9804455e-07, Final residual = 5.2329295e-09, No Iterations 3
smoothSolver:  Solving for Uz, Initial residual = 3.4799332e-09, Final residual = 3.4799332e-09, No Iterations 0
FDICPCG:  Solving for p, Initial residual = 1.8429283e-06, Final residual = 6.7548391e-07, No Iterations 1
FDICPCG:  Solving for p, Initial residual = 6.994294e-07, Final residual = 6.994294e-07, No Iterations 0
time step continuity errors : sum local = 3.6078824e-09, global = -3.0459816e-11, cumulative = 3.7113364e-07
FDICPCG:  Solving for p, Initial residual = 1.1431941e-06, Final residual = 4.5236079e-07, No Iterations 1
FDICPCG:  Solving for p, Initial residual = 4.6869414e-07, Final residual = 4.6869414e-07, No Iterations 0
time step continuity errors : sum local = 2.4176744e-09, global = -2.9779589e-11, cumulative = 3.7110386e-07
ExecutionTime = 277.03 s  ClockTime = 277 s

fieldMinMax minmaxdomain output:
    min(p) = 0 at location (-0.000525 0 0.216)
    max(p) = 18.624215 at location (-0.00014395118 -0.0014503614 0.0015)
    min(U) = (-0.0074008828 -0.071217844 1.338011) at location (0.00010410184 0.0011123239 0.0015)
    max(U) = (0.045913566 0.036672786 1.4621097) at location (-0.0006310689 -0.00050894412 0.0015)

Time = 0.197

Courant Number mean: 0.24325134 max: 0.59930721
smoothSolver:  Solving for Ux, Initial residual = 7.482663e-07, Final residual = 6.465956e-09, No Iterations 3
smoothSolver:  Solving for Uy, Initial residual = 5.5800099e-07, Final residual = 3.9683486e-09, No Iterations 3
smoothSolver:  Solving for Uz, Initial residual = 2.7679548e-09, Final residual = 2.7679548e-09, No Iterations 0
FDICPCG:  Solving for p, Initial residual = 1.013811e-06, Final residual = 5.0669606e-07, No Iterations 1
FDICPCG:  Solving for p, Initial residual = 5.2120859e-07, Final residual = 5.2120859e-07, No Iterations 0
time step continuity errors : sum local = 2.6885611e-09, global = -2.8478918e-11, cumulative = 3.7107538e-07
FDICPCG:  Solving for p, Initial residual = 8.0671197e-07, Final residual = 8.0671197e-07, No Iterations 0
FDICPCG:  Solving for p, Initial residual = 8.0671197e-07, Final residual = 8.0671197e-07, No Iterations 0
time step continuity errors : sum local = 4.1612789e-09, global = -2.7620356e-11, cumulative = 3.7104776e-07
ExecutionTime = 277.15 s  ClockTime = 277 s

fieldMinMax minmaxdomain output:
    min(p) = 0 at location (-0.000525 0 0.216)
    max(p) = 18.624215 at location (-0.0014503614 0.00014395118 0.0015)
    min(U) = (-0.0074008825 -0.071217844 1.338011) at location (0.00010410184 0.0011123239 0.0015)
    max(U) = (0.045913565 0.036672788 1.4621097) at location (-0.0006310689 -0.00050894412 0.0015)

Time = 0.1975

Courant Number mean: 0.24325134 max: 0.59930723
smoothSolver:  Solving for Ux, Initial residual = 9.9577723e-07, Final residual = 7.9049446e-09, No Iterations 3
smoothSolver:  Solving for Uy, Initial residual = 7.6248113e-07, Final residual = 4.780978e-09, No Iterations 3
smoothSolver:  Solving for Uz, Initial residual = 3.4611869e-09, Final residual = 3.4611869e-09, No Iterations 0
FDICPCG:  Solving for p, Initial residual = 1.7795717e-06, Final residual = 6.5706815e-07, No Iterations 1
FDICPCG:  Solving for p, Initial residual = 6.9025381e-07, Final residual = 6.9025381e-07, No Iterations 0
time step continuity errors : sum local = 3.5605517e-09, global = -2.6030303e-11, cumulative = 3.7102173e-07
FDICPCG:  Solving for p, Initial residual = 1.0953573e-06, Final residual = 4.0893602e-07, No Iterations 1
FDICPCG:  Solving for p, Initial residual = 4.2676071e-07, Final residual = 4.2676071e-07, No Iterations 0
time step continuity errors : sum local = 2.2013686e-09, global = -2.4834036e-11, cumulative = 3.709969e-07
ExecutionTime = 277.3 s  ClockTime = 278 s

fieldMinMax minmaxdomain output:
    min(p) = 0 at location (-0.000525 0 0.216)
    max(p) = 18.624215 at location (-0.00014395118 -0.0014503614 0.0015)
    min(U) = (-0.0074008826 -0.071217844 1.338011) at location (0.00010410184 0.0011123239 0.0015)
    max(U) = (0.045913566 0.036672787 1.4621097) at location (-0.0006310689 -0.00050894412 0.0015)

Time = 0.198

Courant Number mean: 0.24325134 max: 0.59930721
smoothSolver:  Solving for Ux, Initial residual = 7.3018346e-07, Final residual = 6.364695e-09, No Iterations 3
smoothSolver:  Solving for Uy, Initial residual = 5.2805101e-07, Final residual = 3.8004396e-09, No Iterations 3
smoothSolver:  Solving for Uz, Initial residual = 2.7534286e-09, Final residual = 2.7534286e-09, No Iterations 0
FDICPCG:  Solving for p, Initial residual = 9.6617714e-07, Final residual = 9.6617714e-07, No Iterations 0
FDICPCG:  Solving for p, Initial residual = 9.6617714e-07, Final residual = 9.6617714e-07, No Iterations 0
time step continuity errors : sum local = 4.9838515e-09, global = -2.2985455e-11, cumulative = 3.7097391e-07
FDICPCG:  Solving for p, Initial residual = 9.6712155e-07, Final residual = 9.6712155e-07, No Iterations 0
FDICPCG:  Solving for p, Initial residual = 9.6712155e-07, Final residual = 9.6712155e-07, No Iterations 0
time step continuity errors : sum local = 4.988723e-09, global = -2.1758103e-11, cumulative = 3.7095215e-07
ExecutionTime = 277.44 s  ClockTime = 278 s

fieldMinMax minmaxdomain output:
    min(p) = 0 at location (-0.000525 0 0.216)
    max(p) = 18.624215 at location (-0.00014395118 -0.0014503614 0.0015)
    min(U) = (-0.0074008818 -0.071217843 1.338011) at location (0.00010410184 0.0011123239 0.0015)
    max(U) = (0.045913567 0.036672786 1.4621097) at location (-0.0006310689 -0.00050894412 0.0015)

Time = 0.1985

Courant Number mean: 0.24325134 max: 0.59930722
smoothSolver:  Solving for Ux, Initial residual = 5.5049983e-07, Final residual = 4.9235565e-09, No Iterations 3
smoothSolver:  Solving for Uy, Initial residual = 3.8961057e-07, Final residual = 2.959847e-09, No Iterations 3
smoothSolver:  Solving for Uz, Initial residual = 4.0302212e-09, Final residual = 4.0302212e-09, No Iterations 0
FDICPCG:  Solving for p, Initial residual = 1.4699902e-06, Final residual = 5.4775636e-07, No Iterations 1
FDICPCG:  Solving for p, Initial residual = 5.5842557e-07, Final residual = 5.5842557e-07, No Iterations 0
time step continuity errors : sum local = 2.8805391e-09, global = -1.9598639e-11, cumulative = 3.7093256e-07
FDICPCG:  Solving for p, Initial residual = 9.9721319e-07, Final residual = 9.9721319e-07, No Iterations 0
FDICPCG:  Solving for p, Initial residual = 9.9721319e-07, Final residual = 9.9721319e-07, No Iterations 0
time step continuity errors : sum local = 5.1439462e-09, global = -1.8236882e-11, cumulative = 3.7091432e-07
ExecutionTime = 277.56 s  ClockTime = 278 s

fieldMinMax minmaxdomain output:
    min(p) = 0 at location (-0.000525 0 0.216)
    max(p) = 18.624215 at location (-0.0014503614 -0.00014395118 0.0015)
    min(U) = (-0.0074008828 -0.071217845 1.338011) at location (0.00010410184 0.0011123239 0.0015)
    max(U) = (0.045913565 0.036672788 1.4621097) at location (-0.0006310689 -0.00050894412 0.0015)

Time = 0.199

Courant Number mean: 0.24325134 max: 0.59930722
smoothSolver:  Solving for Ux, Initial residual = 2.0077534e-06, Final residual = 3.874278e-09, No Iterations 4
smoothSolver:  Solving for Uy, Initial residual = 1.4265975e-06, Final residual = 2.1967442e-09, No Iterations 4
smoothSolver:  Solving for Uz, Initial residual = 4.4192243e-09, Final residual = 4.4192243e-09, No Iterations 0
FDICPCG:  Solving for p, Initial residual = 2.9370555e-06, Final residual = 9.3452523e-07, No Iterations 1
FDICPCG:  Solving for p, Initial residual = 9.6569224e-07, Final residual = 9.6569224e-07, No Iterations 0
time step continuity errors : sum local = 4.9813536e-09, global = -1.6006808e-11, cumulative = 3.7089831e-07
FDICPCG:  Solving for p, Initial residual = 1.7755849e-06, Final residual = 5.3338579e-07, No Iterations 1
FDICPCG:  Solving for p, Initial residual = 5.569757e-07, Final residual = 5.569757e-07, No Iterations 0
time step continuity errors : sum local = 2.8730595e-09, global = -1.4503052e-11, cumulative = 3.7088381e-07
ExecutionTime = 277.68 s  ClockTime = 278 s

fieldMinMax minmaxdomain output:
    min(p) = 0 at location (-0.000525 0 0.216)
    max(p) = 18.624215 at location (-0.00014395118 -0.0014503614 0.0015)
    min(U) = (-0.007400883 -0.071217845 1.338011) at location (0.00010410184 0.0011123239 0.0015)
    max(U) = (0.045913566 0.036672786 1.4621097) at location (-0.0006310689 -0.00050894412 0.0015)

Time = 0.1995

Courant Number mean: 0.24325134 max: 0.59930721
smoothSolver:  Solving for Ux, Initial residual = 1.2188396e-06, Final residual = 2.4320538e-09, No Iterations 4
smoothSolver:  Solving for Uy, Initial residual = 8.6590596e-07, Final residual = 6.056221e-09, No Iterations 3
smoothSolver:  Solving for Uz, Initial residual = 3.0117705e-09, Final residual = 3.0117705e-09, No Iterations 0
FDICPCG:  Solving for p, Initial residual = 1.5197967e-06, Final residual = 5.8159646e-07, No Iterations 1
FDICPCG:  Solving for p, Initial residual = 6.0164592e-07, Final residual = 6.0164592e-07, No Iterations 0
time step continuity errors : sum local = 3.1034834e-09, global = -1.2227328e-11, cumulative = 3.7087158e-07
FDICPCG:  Solving for p, Initial residual = 1.0131161e-06, Final residual = 4.2453748e-07, No Iterations 1
FDICPCG:  Solving for p, Initial residual = 4.412579e-07, Final residual = 4.412579e-07, No Iterations 0
time step continuity errors : sum local = 2.2761493e-09, global = -1.0762837e-11, cumulative = 3.7086082e-07
ExecutionTime = 277.81 s  ClockTime = 278 s

fieldMinMax minmaxdomain output:
    min(p) = 0 at location (-0.000525 0 0.216)
    max(p) = 18.624215 at location (-0.0014503614 -0.00014395118 0.0015)
    min(U) = (-0.0074008829 -0.071217845 1.338011) at location (0.00010410184 0.0011123239 0.0015)
    max(U) = (0.045913565 0.036672787 1.4621097) at location (-0.0006310689 -0.00050894412 0.0015)

Time = 0.2

Courant Number mean: 0.24325134 max: 0.59930721
smoothSolver:  Solving for Ux, Initial residual = 5.6822832e-07, Final residual = 4.8159982e-09, No Iterations 3
smoothSolver:  Solving for Uy, Initial residual = 4.6011227e-07, Final residual = 2.9646669e-09, No Iterations 3
smoothSolver:  Solving for Uz, Initial residual = 2.7995978e-09, Final residual = 2.7995978e-09, No Iterations 0
FDICPCG:  Solving for p, Initial residual = 8.6496726e-07, Final residual = 8.6496726e-07, No Iterations 0
FDICPCG:  Solving for p, Initial residual = 8.6496726e-07, Final residual = 8.6496726e-07, No Iterations 0
time step continuity errors : sum local = 4.4617786e-09, global = -8.8193638e-12, cumulative = 3.70852e-07
FDICPCG:  Solving for p, Initial residual = 8.6562609e-07, Final residual = 8.6562609e-07, No Iterations 0
FDICPCG:  Solving for p, Initial residual = 8.6562609e-07, Final residual = 8.6562609e-07, No Iterations 0
time step continuity errors : sum local = 4.4651769e-09, global = -7.6871246e-12, cumulative = 3.7084431e-07
ExecutionTime = 278.03 s  ClockTime = 278 s

fieldMinMax minmaxdomain output:
    min(p) = 0 at location (-0.000525 0 0.216)
    max(p) = 18.624215 at location (-0.0014503614 -0.00014395118 0.0015)
    min(U) = (-0.0074008839 -0.071217847 1.338011) at location (0.00010410184 0.0011123239 0.0015)
    max(U) = (0.045913564 0.036672787 1.4621097) at location (-0.0006310689 -0.00050894412 0.0015)

End

