/*---------------------------------------------------------------------------*\
| =========                 |                                                 |
| \\      /  F ield         | OpenFOAM: The Open Source CFD Toolbox           |
|  \\    /   O peration     | Version:  3.0.x                                 |
|   \\  /    A nd           | Web:      www.OpenFOAM.org                      |
|    \\/     M anipulation  |                                                 |
\*---------------------------------------------------------------------------*/
Build  : 3.0.x-5b548639bc6e
Exec   : icoFoam
Date   : Jun 16 2016
Time   : 17:14:16
Host   : "dagobah"
PID    : 8463
Case   : /home/joegi/OpenFOAM/of_courses/2016a/of_course_tutorials/30x/101Linear_SOLVERS/log3
nProcs : 1
sigFpe : Enabling floating point exception trapping (FOAM_SIGFPE).
fileModificationChecking : Monitoring run-time modified files using timeStampMaster
allowSystemOperations : Allowing user-supplied system call operations

// * * * * * * * * * * * * * * * * * * * * * * * * * * * * * * * * * * * * * //
Create time

Create mesh for time = 0


PISO: Operating solver in PISO mode

Reading transportProperties

Reading field p

Reading field U

Reading/calculating face flux field phi


Starting time loop

Time = 0.0005

Courant Number mean: 0 max: 0
smoothSolver:  Solving for Ux, Initial residual = 0, Final residual = 0, No Iterations 0
smoothSolver:  Solving for Uy, Initial residual = 0, Final residual = 0, No Iterations 0
smoothSolver:  Solving for Uz, Initial residual = 1, Final residual = 5.7493319e-09, No Iterations 15
GAMGPCG:  Solving for p, Initial residual = 1, Final residual = 0.0083837479, No Iterations 86
GAMGPCG:  Solving for p, Initial residual = 0.0001265182, Final residual = 1.2618832e-06, No Iterations 31
time step continuity errors : sum local = 6.0739897e-07, global = 3.3035153e-09, cumulative = 3.3035153e-09
GAMGPCG:  Solving for p, Initial residual = 0.0042694917, Final residual = 3.6179379e-05, No Iterations 110
GAMGPCG:  Solving for p, Initial residual = 0.00027613899, Final residual = 9.5390174e-07, No Iterations 52
time step continuity errors : sum local = 1.76312e-07, global = -8.6296717e-10, cumulative = 2.4405481e-09
ExecutionTime = 3.58 s  ClockTime = 3 s

fieldMinMax minmaxdomain output:
    min(p) = 0 at location (-0.000525 0 0.216)
    max(p) = 706.27291 at location (-0.00014395118 0.0014503614 0.0015)
    min(U) = (-0.023608213 -0.00033493152 0.66984557) at location (0.0013764703 -0.00013524057 0.0015)
    max(U) = (0.011254495 0.017662562 0.96820596) at location (-0.00067060103 -0.00082388178 0.0015)

Time = 0.001

Courant Number mean: 0.23865302 max: 0.39452579
smoothSolver:  Solving for Ux, Initial residual = 0.35039622, Final residual = 5.4060257e-09, No Iterations 13
smoothSolver:  Solving for Uy, Initial residual = 0.35042693, Final residual = 5.891345e-09, No Iterations 13
smoothSolver:  Solving for Uz, Initial residual = 0.60025867, Final residual = 3.4619814e-09, No Iterations 15
GAMGPCG:  Solving for p, Initial residual = 0.019533761, Final residual = 0.00018878692, No Iterations 116
GAMGPCG:  Solving for p, Initial residual = 0.00040543401, Final residual = 3.8443537e-06, No Iterations 25
time step continuity errors : sum local = 1.031443e-06, global = 3.0843297e-09, cumulative = 5.5248779e-09
GAMGPCG:  Solving for p, Initial residual = 0.0077847042, Final residual = 7.7098559e-05, No Iterations 154
GAMGPCG:  Solving for p, Initial residual = 0.0093240188, Final residual = 9.4885208e-07, No Iterations 97
time step continuity errors : sum local = 8.5280362e-09, global = 1.4985124e-10, cumulative = 5.6747291e-09
ExecutionTime = 8.04 s  ClockTime = 8 s

fieldMinMax minmaxdomain output:
    min(p) = 0 at location (-0.000525 0 0.216)
    max(p) = 29.171124 at location (-0.0011227589 -0.00092118362 0.0015)
    min(U) = (-0.010578447 -0.041785345 1.0393373) at location (0.00033812783 0.0011454499 0.0015)
    max(U) = (0.018458161 3.1142046e-06 1.1212716) at location (-0.000525 -6.8173165e-21 0.0015)

Time = 0.0015

Courant Number mean: 0.23990457 max: 0.4764516
smoothSolver:  Solving for Ux, Initial residual = 0.17315621, Final residual = 4.1437455e-09, No Iterations 13
smoothSolver:  Solving for Uy, Initial residual = 0.17329386, Final residual = 4.4481375e-09, No Iterations 13
smoothSolver:  Solving for Uz, Initial residual = 0.070507109, Final residual = 6.8167315e-09, No Iterations 12
GAMGPCG:  Solving for p, Initial residual = 0.059099755, Final residual = 0.00047673362, No Iterations 65
GAMGPCG:  Solving for p, Initial residual = 0.0038870775, Final residual = 3.2037329e-05, No Iterations 20
time step continuity errors : sum local = 3.9504967e-07, global = 8.0702324e-10, cumulative = 6.4817523e-09
GAMGPCG:  Solving for p, Initial residual = 0.017438285, Final residual = 0.00011690239, No Iterations 61
GAMGPCG:  Solving for p, Initial residual = 0.0026821451, Final residual = 9.8339288e-07, No Iterations 59
time step continuity errors : sum local = 9.7867408e-09, global = -7.599662e-11, cumulative = 6.4057557e-09
ExecutionTime = 10.1 s  ClockTime = 10 s

fieldMinMax minmaxdomain output:
    min(p) = 0 at location (-0.000525 0 0.216)
    max(p) = 35.905424 at location (-0.0014503614 0.00014395118 0.0015)
    min(U) = (-0.013387697 -0.049512284 1.1184829) at location (0.00033812783 0.0011454499 0.0015)
    max(U) = (0.024512411 4.0103216e-07 1.2212214) at location (-0.000525 -6.8173165e-21 0.0015)

Time = 0.002

Courant Number mean: 0.24035999 max: 0.51470758
smoothSolver:  Solving for Ux, Initial residual = 0.070560753, Final residual = 5.1544904e-09, No Iterations 12
smoothSolver:  Solving for Uy, Initial residual = 0.070641286, Final residual = 5.6542155e-09, No Iterations 12
smoothSolver:  Solving for Uz, Initial residual = 0.04607302, Final residual = 7.456817e-09, No Iterations 12
GAMGPCG:  Solving for p, Initial residual = 0.0133821, Final residual = 0.00013344395, No Iterations 65
GAMGPCG:  Solving for p, Initial residual = 0.0011574235, Final residual = 1.135655e-05, No Iterations 19
time step continuity errors : sum local = 7.6855803e-08, global = -6.2007708e-10, cumulative = 5.7856786e-09
GAMGPCG:  Solving for p, Initial residual = 0.0077835756, Final residual = 7.2039698e-05, No Iterations 137
GAMGPCG:  Solving for p, Initial residual = 0.00044559169, Final residual = 9.9097538e-07, No Iterations 42
time step continuity errors : sum local = 8.5784885e-09, global = -7.2070248e-11, cumulative = 5.7136084e-09
ExecutionTime = 12.63 s  ClockTime = 13 s

fieldMinMax minmaxdomain output:
    min(p) = 0 at location (-0.000525 0 0.216)
    max(p) = 31.019994 at location (0.00014395118 0.0014503614 0.0015)
    min(U) = (-0.015245001 -0.054665717 1.1566671) at location (0.00033812783 0.0011454499 0.0015)
    max(U) = (0.02853448 2.9039808e-07 1.2883403) at location (-0.000525 -6.8173165e-21 0.0015)

Time = 0.0025

Courant Number mean: 0.240716 max: 0.5388576
smoothSolver:  Solving for Ux, Initial residual = 0.050523046, Final residual = 4.611567e-09, No Iterations 12
smoothSolver:  Solving for Uy, Initial residual = 0.050537059, Final residual = 4.9701765e-09, No Iterations 12
smoothSolver:  Solving for Uz, Initial residual = 0.032540162, Final residual = 5.739883e-09, No Iterations 12
GAMGPCG:  Solving for p, Initial residual = 0.0081238231, Final residual = 7.4918532e-05, No Iterations 57
GAMGPCG:  Solving for p, Initial residual = 0.00068624802, Final residual = 6.7674879e-06, No Iterations 23
time step continuity errors : sum local = 4.632126e-08, global = 2.81105e-10, cumulative = 5.9947134e-09
GAMGPCG:  Solving for p, Initial residual = 0.0029222962, Final residual = 2.8337116e-05, No Iterations 113
GAMGPCG:  Solving for p, Initial residual = 0.00030758443, Final residual = 9.6209525e-07, No Iterations 32
time step continuity errors : sum local = 7.6154367e-09, global = 1.2836447e-10, cumulative = 6.1230779e-09
ExecutionTime = 14.7 s  ClockTime = 15 s

fieldMinMax minmaxdomain output:
    min(p) = 0 at location (-0.000525 0 0.216)
    max(p) = 28.372721 at location (-0.00014395118 -0.0014503614 0.0015)
    min(U) = (-0.0065255666 -0.060862693 1.2510283) at location (0.00010410184 0.0011123239 0.0015)
    max(U) = (0.031628058 1.0153419e-07 1.3317464) at location (-0.000525 -6.8173165e-21 0.0015)

Time = 0.003

Courant Number mean: 0.24098746 max: 0.55455875
smoothSolver:  Solving for Ux, Initial residual = 0.037481968, Final residual = 3.5395435e-09, No Iterations 12
smoothSolver:  Solving for Uy, Initial residual = 0.037487482, Final residual = 3.828431e-09, No Iterations 12
smoothSolver:  Solving for Uz, Initial residual = 0.025182492, Final residual = 4.7484793e-09, No Iterations 12
GAMGPCG:  Solving for p, Initial residual = 0.0051233572, Final residual = 5.0476325e-05, No Iterations 95
GAMGPCG:  Solving for p, Initial residual = 0.0003691754, Final residual = 2.4194362e-06, No Iterations 26
time step continuity errors : sum local = 1.6143477e-08, global = 6.8722431e-11, cumulative = 6.1918003e-09
GAMGPCG:  Solving for p, Initial residual = 0.0015691606, Final residual = 1.1375432e-05, No Iterations 93
GAMGPCG:  Solving for p, Initial residual = 0.00016733785, Final residual = 8.9972771e-07, No Iterations 23
time step continuity errors : sum local = 6.6680544e-09, global = -2.3661208e-10, cumulative = 5.9551882e-09
ExecutionTime = 17.62 s  ClockTime = 18 s

fieldMinMax minmaxdomain output:
    min(p) = 0 at location (-0.000525 0 0.216)
    max(p) = 26.556102 at location (0.0014503614 -0.00014395118 0.0015)
    min(U) = (-0.028719238 -0.056300352 1.3020367) at location (0.00049574271 0.00095086855 0.0015)
    max(U) = (0.033890535 -3.7738808e-08 1.3604623) at location (-0.000525 -6.8173165e-21 0.0015)

Time = 0.0035

Courant Number mean: 0.24120852 max: 0.5672649
smoothSolver:  Solving for Ux, Initial residual = 0.030033387, Final residual = 2.9565085e-09, No Iterations 12
smoothSolver:  Solving for Uy, Initial residual = 0.030033792, Final residual = 3.1896136e-09, No Iterations 12
smoothSolver:  Solving for Uz, Initial residual = 0.020129685, Final residual = 4.0415641e-09, No Iterations 12
GAMGPCG:  Solving for p, Initial residual = 0.0036886122, Final residual = 3.5883335e-05, No Iterations 85
GAMGPCG:  Solving for p, Initial residual = 0.00029789042, Final residual = 2.2429602e-06, No Iterations 20
time step continuity errors : sum local = 1.457253e-08, global = -2.2718828e-10, cumulative = 5.7279999e-09
GAMGPCG:  Solving for p, Initial residual = 0.0011351047, Final residual = 1.0456884e-05, No Iterations 116
GAMGPCG:  Solving for p, Initial residual = 0.00013896005, Final residual = 7.9534574e-07, No Iterations 25
time step continuity errors : sum local = 5.6006935e-09, global = -1.2014833e-10, cumulative = 5.6078516e-09
ExecutionTime = 20.09 s  ClockTime = 20 s

fieldMinMax minmaxdomain output:
    min(p) = 0 at location (-0.000525 0 0.216)
    max(p) = 25.229075 at location (0.00014395118 0.0014503614 0.0015)
    min(U) = (-0.0069957824 -0.066211869 1.2854717) at location (0.00010410184 0.0011123239 0.0015)
    max(U) = (0.040512477 0.019226962 1.380436) at location (-0.00061610739 -0.00030459428 0.0015)

Time = 0.004

Courant Number mean: 0.24140015 max: 0.57717839
smoothSolver:  Solving for Ux, Initial residual = 0.024734678, Final residual = 8.9619539e-09, No Iterations 11
smoothSolver:  Solving for Uy, Initial residual = 0.024736295, Final residual = 9.5350755e-09, No Iterations 11
smoothSolver:  Solving for Uz, Initial residual = 0.016424616, Final residual = 3.4966039e-09, No Iterations 12
GAMGPCG:  Solving for p, Initial residual = 0.0028150186, Final residual = 2.5459434e-05, No Iterations 105
GAMGPCG:  Solving for p, Initial residual = 0.00023013139, Final residual = 2.139815e-06, No Iterations 21
time step continuity errors : sum local = 1.3563563e-08, global = -5.3495939e-10, cumulative = 5.0728922e-09
GAMGPCG:  Solving for p, Initial residual = 0.00088139633, Final residual = 8.7648439e-06, No Iterations 152
GAMGPCG:  Solving for p, Initial residual = 0.00011097211, Final residual = 8.0305171e-07, No Iterations 21
time step continuity errors : sum local = 5.4273772e-09, global = -1.923441e-11, cumulative = 5.0536578e-09
ExecutionTime = 22.89 s  ClockTime = 23 s

fieldMinMax minmaxdomain output:
    min(p) = 0 at location (-0.000525 0 0.216)
    max(p) = 24.214477 at location (0.00014395118 0.0014503614 0.0015)
    min(U) = (-0.007121172 -0.06775099 1.2962836) at location (0.00010410184 0.0011123239 0.0015)
    max(U) = (0.042752972 0.034148407 1.3960198) at location (-0.0006310689 -0.00050894412 0.0015)

Time = 0.0045

Courant Number mean: 0.2415795 max: 0.58402466
smoothSolver:  Solving for Ux, Initial residual = 0.020827148, Final residual = 7.8210193e-09, No Iterations 11
smoothSolver:  Solving for Uy, Initial residual = 0.020829314, Final residual = 8.1939392e-09, No Iterations 11
smoothSolver:  Solving for Uz, Initial residual = 0.013691181, Final residual = 3.0582764e-09, No Iterations 12
GAMGPCG:  Solving for p, Initial residual = 0.0022800659, Final residual = 1.9245857e-05, No Iterations 80
GAMGPCG:  Solving for p, Initial residual = 0.0001828387, Final residual = 1.7222887e-06, No Iterations 23
time step continuity errors : sum local = 1.0679032e-08, global = 2.6882364e-10, cumulative = 5.3224815e-09
GAMGPCG:  Solving for p, Initial residual = 0.0007431568, Final residual = 6.695351e-06, No Iterations 108
GAMGPCG:  Solving for p, Initial residual = 8.9399741e-05, Final residual = 8.8866887e-07, No Iterations 18
time step continuity errors : sum local = 5.8066827e-09, global = -1.8334913e-10, cumulative = 5.1391323e-09
ExecutionTime = 24.91 s  ClockTime = 25 s

fieldMinMax minmaxdomain output:
    min(p) = 0 at location (-0.000525 0 0.216)
    max(p) = 23.413912 at location (-0.0014503614 0.00014395118 0.0015)
    min(U) = (-0.0072047906 -0.06881444 1.3049356) at location (0.00010410184 0.0011123239 0.0015)
    max(U) = (0.043745008 0.034937458 1.40843) at location (-0.0006310689 -0.00050894412 0.0015)

Time = 0.005

Courant Number mean: 0.24174026 max: 0.58872443
smoothSolver:  Solving for Ux, Initial residual = 0.017778872, Final residual = 7.0214142e-09, No Iterations 11
smoothSolver:  Solving for Uy, Initial residual = 0.017779775, Final residual = 7.1928685e-09, No Iterations 11
smoothSolver:  Solving for Uz, Initial residual = 0.011627437, Final residual = 8.8510175e-09, No Iterations 11
GAMGPCG:  Solving for p, Initial residual = 0.0019101092, Final residual = 1.6477223e-05, No Iterations 99
GAMGPCG:  Solving for p, Initial residual = 0.00015003116, Final residual = 1.246133e-06, No Iterations 21
time step continuity errors : sum local = 7.5769756e-09, global = 2.8835264e-10, cumulative = 5.427485e-09
GAMGPCG:  Solving for p, Initial residual = 0.00065623122, Final residual = 5.8073746e-06, No Iterations 101
GAMGPCG:  Solving for p, Initial residual = 7.3731577e-05, Final residual = 9.3536346e-07, No Iterations 18
time step continuity errors : sum local = 5.9413952e-09, global = -4.4816918e-11, cumulative = 5.3826681e-09
ExecutionTime = 27.43 s  ClockTime = 27 s

fieldMinMax minmaxdomain output:
    min(p) = 0 at location (-0.000525 0 0.216)
    max(p) = 22.767095 at location (-0.0014503614 0.00014395118 0.0015)
    min(U) = (-0.0072606017 -0.069541812 1.3120595) at location (0.00010410184 0.0011123239 0.0015)
    max(U) = (0.044427216 0.03547837 1.418154) at location (-0.0006310689 -0.00050894412 0.0015)

Time = 0.0055

Courant Number mean: 0.24188286 max: 0.59192605
smoothSolver:  Solving for Ux, Initial residual = 0.015316568, Final residual = 6.2725117e-09, No Iterations 11
smoothSolver:  Solving for Uy, Initial residual = 0.015316504, Final residual = 6.4234212e-09, No Iterations 11
smoothSolver:  Solving for Uz, Initial residual = 0.010022919, Final residual = 7.8522486e-09, No Iterations 11
GAMGPCG:  Solving for p, Initial residual = 0.0016211594, Final residual = 1.6037578e-05, No Iterations 104
GAMGPCG:  Solving for p, Initial residual = 0.00012506365, Final residual = 1.1814721e-06, No Iterations 24
time step continuity errors : sum local = 7.0607153e-09, global = -8.2403347e-11, cumulative = 5.3002647e-09
GAMGPCG:  Solving for p, Initial residual = 0.00058939848, Final residual = 5.7023282e-06, No Iterations 123
GAMGPCG:  Solving for p, Initial residual = 6.1810653e-05, Final residual = 8.0628822e-07, No Iterations 18
time step continuity errors : sum local = 4.9999711e-09, global = 1.5144215e-10, cumulative = 5.4517069e-09
ExecutionTime = 29.63 s  ClockTime = 30 s

fieldMinMax minmaxdomain output:
    min(p) = 0 at location (-0.000525 0 0.216)
    max(p) = 22.234778 at location (-0.0014503614 -0.00014395118 0.0015)
    min(U) = (-0.0072979622 -0.070033971 1.3179755) at location (0.00010410184 0.0011123239 0.0015)
    max(U) = (0.044880798 0.035837294 1.4259963) at location (-0.0006310689 -0.00050894412 0.0015)

Time = 0.006

Courant Number mean: 0.24201034 max: 0.59408839
smoothSolver:  Solving for Ux, Initial residual = 0.013296488, Final residual = 5.5485228e-09, No Iterations 11
smoothSolver:  Solving for Uy, Initial residual = 0.013296893, Final residual = 5.6865578e-09, No Iterations 11
smoothSolver:  Solving for Uz, Initial residual = 0.0087182354, Final residual = 6.9942473e-09, No Iterations 11
GAMGPCG:  Solving for p, Initial residual = 0.0013867964, Final residual = 1.2954487e-05, No Iterations 149
GAMGPCG:  Solving for p, Initial residual = 0.00010277403, Final residual = 8.7341469e-07, No Iterations 28
time step continuity errors : sum local = 5.1404653e-09, global = -2.0756542e-10, cumulative = 5.2441414e-09
GAMGPCG:  Solving for p, Initial residual = 0.00052860141, Final residual = 5.0221785e-06, No Iterations 148
GAMGPCG:  Solving for p, Initial residual = 5.2004881e-05, Final residual = 7.7779611e-07, No Iterations 16
time step continuity errors : sum local = 4.7249068e-09, global = 1.6234288e-10, cumulative = 5.4064843e-09
ExecutionTime = 32.53 s  ClockTime = 32 s

fieldMinMax minmaxdomain output:
    min(p) = 0 at location (-0.000525 0 0.216)
    max(p) = 21.790166 at location (0.00014395118 0.0014503614 0.0015)
    min(U) = (-0.0073231696 -0.070363428 1.3228614) at location (0.00010410184 0.0011123239 0.0015)
    max(U) = (0.045170817 0.036066646 1.4324494) at location (-0.0006310689 -0.00050894412 0.0015)

Time = 0.0065

Courant Number mean: 0.24212415 max: 0.59553667
smoothSolver:  Solving for Ux, Initial residual = 0.011629128, Final residual = 4.9154933e-09, No Iterations 11
smoothSolver:  Solving for Uy, Initial residual = 0.011629699, Final residual = 5.0018269e-09, No Iterations 11
smoothSolver:  Solving for Uz, Initial residual = 0.0076275661, Final residual = 6.2495383e-09, No Iterations 11
GAMGPCG:  Solving for p, Initial residual = 0.0012060432, Final residual = 1.1354369e-05, No Iterations 161
GAMGPCG:  Solving for p, Initial residual = 8.5615467e-05, Final residual = 9.224578e-07, No Iterations 19
time step continuity errors : sum local = 5.3558881e-09, global = 2.0736315e-10, cumulative = 5.6138475e-09
GAMGPCG:  Solving for p, Initial residual = 0.00047062973, Final residual = 4.3683199e-06, No Iterations 82
GAMGPCG:  Solving for p, Initial residual = 4.3844845e-05, Final residual = 9.9145729e-07, No Iterations 16
time step continuity errors : sum local = 5.9162099e-09, global = -1.6774915e-10, cumulative = 5.4460983e-09
ExecutionTime = 35.22 s  ClockTime = 35 s

fieldMinMax minmaxdomain output:
    min(p) = 0 at location (-0.000525 0 0.216)
    max(p) = 21.414249 at location (-0.00014395118 0.0014503614 0.0015)
    min(U) = (-0.0073403162 -0.070582112 1.3268381) at location (0.00010410184 0.0011123239 0.0015)
    max(U) = (0.045348102 0.036207067 1.4378172) at location (-0.0006310689 -0.00050894412 0.0015)

Time = 0.007

Courant Number mean: 0.2422264 max: 0.59650072
smoothSolver:  Solving for Ux, Initial residual = 0.010239648, Final residual = 4.3900322e-09, No Iterations 11
smoothSolver:  Solving for Uy, Initial residual = 0.010240648, Final residual = 4.4190529e-09, No Iterations 11
smoothSolver:  Solving for Uz, Initial residual = 0.0067034985, Final residual = 5.5987172e-09, No Iterations 11
GAMGPCG:  Solving for p, Initial residual = 0.0010551724, Final residual = 8.1036859e-06, No Iterations 109
GAMGPCG:  Solving for p, Initial residual = 7.1166248e-05, Final residual = 9.6662726e-07, No Iterations 18
time step continuity errors : sum local = 5.5451732e-09, global = 1.9033496e-10, cumulative = 5.6364333e-09
GAMGPCG:  Solving for p, Initial residual = 0.00041585013, Final residual = 3.4761566e-06, No Iterations 84
GAMGPCG:  Solving for p, Initial residual = 3.8417689e-05, Final residual = 8.8210373e-07, No Iterations 14
time step continuity errors : sum local = 5.1824155e-09, global = 1.264559e-10, cumulative = 5.7628892e-09
ExecutionTime = 37.07 s  ClockTime = 37 s

fieldMinMax minmaxdomain output:
    min(p) = 0 at location (-0.000525 0 0.216)
    max(p) = 21.093339 at location (-0.0014503614 -0.00014395118 0.0015)
    min(U) = (-0.0073522592 -0.070726746 1.3300091) at location (0.00010410184 0.0011123239 0.0015)
    max(U) = (0.045451263 0.03628923 1.4422956) at location (-0.0006310689 -0.00050894412 0.0015)

Time = 0.0075

Courant Number mean: 0.2423187 max: 0.59714181
smoothSolver:  Solving for Ux, Initial residual = 0.0090675698, Final residual = 3.9071526e-09, No Iterations 11
smoothSolver:  Solving for Uy, Initial residual = 0.0090683547, Final residual = 3.9289603e-09, No Iterations 11
smoothSolver:  Solving for Uz, Initial residual = 0.005913539, Final residual = 5.0248285e-09, No Iterations 11
GAMGPCG:  Solving for p, Initial residual = 0.00091883116, Final residual = 8.0511561e-06, No Iterations 146
GAMGPCG:  Solving for p, Initial residual = 6.3140033e-05, Final residual = 8.65202e-07, No Iterations 18
time step continuity errors : sum local = 4.9104505e-09, global = 2.3215423e-11, cumulative = 5.7861046e-09
GAMGPCG:  Solving for p, Initial residual = 0.00037688706, Final residual = 3.664028e-06, No Iterations 88
GAMGPCG:  Solving for p, Initial residual = 3.4417743e-05, Final residual = 9.5551559e-07, No Iterations 11
time step continuity errors : sum local = 5.5376648e-09, global = 1.7472507e-10, cumulative = 5.9608297e-09
ExecutionTime = 39.63 s  ClockTime = 40 s

fieldMinMax minmaxdomain output:
    min(p) = 0 at location (-0.000525 0 0.216)
    max(p) = 20.817029 at location (0.0014503614 0.00014395118 0.0015)
    min(U) = (-0.0073608953 -0.070822933 1.3324754) at location (0.00010410184 0.0011123239 0.0015)
    max(U) = (0.045508413 0.036335516 1.4460208) at location (-0.0006310689 -0.00050894412 0.0015)

Time = 0.008

Courant Number mean: 0.24240196 max: 0.5975712
smoothSolver:  Solving for Ux, Initial residual = 0.0080865566, Final residual = 3.4711053e-09, No Iterations 11
smoothSolver:  Solving for Uy, Initial residual = 0.0080873073, Final residual = 3.4881653e-09, No Iterations 11
smoothSolver:  Solving for Uz, Initial residual = 0.0052357114, Final residual = 4.5168001e-09, No Iterations 11
GAMGPCG:  Solving for p, Initial residual = 0.00080122305, Final residual = 7.8895578e-06, No Iterations 115
GAMGPCG:  Solving for p, Initial residual = 5.5409803e-05, Final residual = 9.1560984e-07, No Iterations 25
time step continuity errors : sum local = 5.1472273e-09, global = -1.3378105e-10, cumulative = 5.8270486e-09
GAMGPCG:  Solving for p, Initial residual = 0.00034714125, Final residual = 3.3203727e-06, No Iterations 88
GAMGPCG:  Solving for p, Initial residual = 2.9946541e-05, Final residual = 8.7798e-07, No Iterations 10
time step continuity errors : sum local = 5.0275746e-09, global = 2.3022275e-11, cumulative = 5.8500709e-09
ExecutionTime = 41.84 s  ClockTime = 42 s

fieldMinMax minmaxdomain output:
    min(p) = 0 at location (-0.000525 0 0.216)
    max(p) = 20.577477 at location (0.0014503614 0.00014395118 0.0015)
    min(U) = (-0.0073673332 -0.070888223 1.3343392) at location (0.00010410184 0.0011123239 0.0015)
    max(U) = (0.045539614 0.036361573 1.4490983) at location (-0.0006310689 -0.00050894412 0.0015)

Time = 0.0085

Courant Number mean: 0.24247729 max: 0.59786516
smoothSolver:  Solving for Ux, Initial residual = 0.0072348974, Final residual = 3.1161511e-09, No Iterations 11
smoothSolver:  Solving for Uy, Initial residual = 0.0072345995, Final residual = 3.1014638e-09, No Iterations 11
smoothSolver:  Solving for Uz, Initial residual = 0.0046592869, Final residual = 4.0651073e-09, No Iterations 11
GAMGPCG:  Solving for p, Initial residual = 0.00070936625, Final residual = 6.6833754e-06, No Iterations 127
GAMGPCG:  Solving for p, Initial residual = 4.7056286e-05, Final residual = 9.3627351e-07, No Iterations 13
time step continuity errors : sum local = 5.2188867e-09, global = 1.5821344e-10, cumulative = 6.0082843e-09
GAMGPCG:  Solving for p, Initial residual = 0.00031444194, Final residual = 3.101772e-06, No Iterations 119
GAMGPCG:  Solving for p, Initial residual = 2.5860692e-05, Final residual = 9.9238736e-07, No Iterations 10
time step continuity errors : sum local = 5.622778e-09, global = 2.8017149e-11, cumulative = 6.0363015e-09
ExecutionTime = 44.36 s  ClockTime = 44 s

fieldMinMax minmaxdomain output:
    min(p) = 0 at location (-0.000525 0 0.216)
    max(p) = 20.368567 at location (-0.0014503614 0.00014395118 0.0015)
    min(U) = (-0.0073723142 -0.070934377 1.3357017) at location (0.00010410184 0.0011123239 0.0015)
    max(U) = (0.045558185 0.036377843 1.4516179) at location (-0.0006310689 -0.00050894412 0.0015)

Time = 0.009

Courant Number mean: 0.24254548 max: 0.59807447
smoothSolver:  Solving for Ux, Initial residual = 0.0064843883, Final residual = 9.8837252e-09, No Iterations 10
smoothSolver:  Solving for Uy, Initial residual = 0.0064862898, Final residual = 9.8781541e-09, No Iterations 10
smoothSolver:  Solving for Uz, Initial residual = 0.0041551525, Final residual = 3.6610846e-09, No Iterations 11
GAMGPCG:  Solving for p, Initial residual = 0.00063524744, Final residual = 5.5637818e-06, No Iterations 89
GAMGPCG:  Solving for p, Initial residual = 3.9921394e-05, Final residual = 9.4741153e-07, No Iterations 13
time step continuity errors : sum local = 5.2411992e-09, global = -3.5785685e-11, cumulative = 6.0005158e-09
GAMGPCG:  Solving for p, Initial residual = 0.00028658637, Final residual = 2.4724244e-06, No Iterations 108
GAMGPCG:  Solving for p, Initial residual = 2.2031477e-05, Final residual = 9.6545792e-07, No Iterations 8
time step continuity errors : sum local = 5.4191063e-09, global = 3.1626036e-11, cumulative = 6.0321418e-09
ExecutionTime = 46.77 s  ClockTime = 47 s

fieldMinMax minmaxdomain output:
    min(p) = 0 at location (-0.000525 0 0.216)
    max(p) = 20.185454 at location (0.0014503614 0.00014395118 0.0015)
    min(U) = (-0.0073763993 -0.070969047 1.3366596) at location (0.00010410184 0.0011123239 0.0015)
    max(U) = (0.045572437 0.036390875 1.4536603) at location (-0.0006310689 -0.00050894412 0.0015)

Time = 0.0095

Courant Number mean: 0.24260728 max: 0.59823211
smoothSolver:  Solving for Ux, Initial residual = 0.0058198901, Final residual = 8.9537703e-09, No Iterations 10
smoothSolver:  Solving for Uy, Initial residual = 0.0058190575, Final residual = 8.8943791e-09, No Iterations 10
smoothSolver:  Solving for Uz, Initial residual = 0.0037124282, Final residual = 3.3009035e-09, No Iterations 11
GAMGPCG:  Solving for p, Initial residual = 0.00057540819, Final residual = 5.1861088e-06, No Iterations 82
GAMGPCG:  Solving for p, Initial residual = 3.3494006e-05, Final residual = 9.2592151e-07, No Iterations 9
time step continuity errors : sum local = 5.0880171e-09, global = -2.0281173e-10, cumulative = 5.8293301e-09
GAMGPCG:  Solving for p, Initial residual = 0.00026589468, Final residual = 2.5922413e-06, No Iterations 136
GAMGPCG:  Solving for p, Initial residual = 1.8963272e-05, Final residual = 9.3834922e-07, No Iterations 2
time step continuity errors : sum local = 5.2234035e-09, global = -7.2676317e-11, cumulative = 5.7566538e-09
ExecutionTime = 49.19 s  ClockTime = 49 s

fieldMinMax minmaxdomain output:
    min(p) = 0 at location (-0.000525 0 0.216)
    max(p) = 20.024238 at location (0.00014395118 -0.0014503614 0.0015)
    min(U) = (-0.0073797927 -0.070997013 1.3373013) at location (0.00010410184 0.0011123239 0.0015)
    max(U) = (0.045587237 0.036404311 1.4552996) at location (-0.0006310689 -0.00050894412 0.0015)

Time = 0.01

Courant Number mean: 0.24266353 max: 0.59835886
smoothSolver:  Solving for Ux, Initial residual = 0.0052532742, Final residual = 8.1124802e-09, No Iterations 10
smoothSolver:  Solving for Uy, Initial residual = 0.0052542555, Final residual = 8.0463774e-09, No Iterations 10
smoothSolver:  Solving for Uz, Initial residual = 0.0033228093, Final residual = 9.8161945e-09, No Iterations 10
GAMGPCG:  Solving for p, Initial residual = 0.00052177613, Final residual = 5.0279737e-06, No Iterations 158
GAMGPCG:  Solving for p, Initial residual = 2.894681e-05, Final residual = 9.0501398e-07, No Iterations 11
time step continuity errors : sum local = 4.9433326e-09, global = -4.7108547e-11, cumulative = 5.7095452e-09
GAMGPCG:  Solving for p, Initial residual = 0.00024344, Final residual = 2.3600197e-06, No Iterations 131
GAMGPCG:  Solving for p, Initial residual = 1.627928e-05, Final residual = 9.7026296e-07, No Iterations 2
time step continuity errors : sum local = 5.3613354e-09, global = 8.0315125e-11, cumulative = 5.7898604e-09
ExecutionTime = 52.18 s  ClockTime = 52 s

fieldMinMax minmaxdomain output:
    min(p) = 0 at location (-0.000525 0 0.216)
    max(p) = 19.881764 at location (0.0014503614 -0.00014395118 0.0015)
    min(U) = (-0.0073827285 -0.071021106 1.3377047) at location (0.00010410184 0.0011123239 0.0015)
    max(U) = (0.045604791 0.036419855 1.4566042) at location (-0.0006310689 -0.00050894412 0.0015)

Time = 0.0105

Courant Number mean: 0.24271467 max: 0.59846711
smoothSolver:  Solving for Ux, Initial residual = 0.0048891839, Final residual = 7.3111054e-09, No Iterations 10
smoothSolver:  Solving for Uy, Initial residual = 0.0048895505, Final residual = 7.2778785e-09, No Iterations 10
smoothSolver:  Solving for Uz, Initial residual = 0.0029810969, Final residual = 8.8655582e-09, No Iterations 10
GAMGPCG:  Solving for p, Initial residual = 0.00047011977, Final residual = 4.4305158e-06, No Iterations 95
GAMGPCG:  Solving for p, Initial residual = 2.4612137e-05, Final residual = 9.2523109e-07, No Iterations 10
time step continuity errors : sum local = 5.0266682e-09, global = -4.084863e-11, cumulative = 5.7490117e-09
GAMGPCG:  Solving for p, Initial residual = 0.00022135427, Final residual = 1.9171738e-06, No Iterations 94
GAMGPCG:  Solving for p, Initial residual = 1.3806337e-05, Final residual = 9.6620251e-07, No Iterations 1
time step continuity errors : sum local = 5.3038581e-09, global = 1.0690303e-11, cumulative = 5.759702e-09
ExecutionTime = 54.28 s  ClockTime = 54 s

fieldMinMax minmaxdomain output:
    min(p) = 0 at location (-0.000525 0 0.216)
    max(p) = 19.755415 at location (-0.0014503614 -0.00014395118 0.0015)
    min(U) = (-0.0073853062 -0.07104289 1.3379355) at location (0.00010410184 0.0011123239 0.0015)
    max(U) = (0.045625719 0.03643794 1.4576351) at location (-0.0006310689 -0.00050894412 0.0015)

Time = 0.011

Courant Number mean: 0.24276126 max: 0.59856386
smoothSolver:  Solving for Ux, Initial residual = 0.0045597147, Final residual = 6.612421e-09, No Iterations 10
smoothSolver:  Solving for Uy, Initial residual = 0.004558534, Final residual = 6.5649275e-09, No Iterations 10
smoothSolver:  Solving for Uz, Initial residual = 0.0026809656, Final residual = 8.0120546e-09, No Iterations 10
GAMGPCG:  Solving for p, Initial residual = 0.00041798907, Final residual = 3.7213182e-06, No Iterations 151
GAMGPCG:  Solving for p, Initial residual = 2.287998e-05, Final residual = 8.6414085e-07, No Iterations 8
time step continuity errors : sum local = 4.6721888e-09, global = -3.0081883e-11, cumulative = 5.7296202e-09
GAMGPCG:  Solving for p, Initial residual = 0.00020325837, Final residual = 1.9652159e-06, No Iterations 99
GAMGPCG:  Solving for p, Initial residual = 1.2721693e-05, Final residual = 9.0625292e-07, No Iterations 4
time step continuity errors : sum local = 4.9455922e-09, global = -5.7208915e-11, cumulative = 5.6724112e-09
ExecutionTime = 56.76 s  ClockTime = 57 s

fieldMinMax minmaxdomain output:
    min(p) = 0 at location (-0.000525 0 0.216)
    max(p) = 19.643103 at location (-0.00014395118 0.0014503614 0.0015)
    min(U) = (-0.00738757 -0.07106311 1.3380472) at location (0.00010410184 0.0011123239 0.0015)
    max(U) = (0.045649604 0.036458183 1.4584462) at location (-0.0006310689 -0.00050894412 0.0015)

Time = 0.0115

Courant Number mean: 0.24280364 max: 0.59865249
smoothSolver:  Solving for Ux, Initial residual = 0.0042137102, Final residual = 6.0363477e-09, No Iterations 10
smoothSolver:  Solving for Uy, Initial residual = 0.0042146879, Final residual = 5.954733e-09, No Iterations 10
smoothSolver:  Solving for Uz, Initial residual = 0.0024149944, Final residual = 7.2434872e-09, No Iterations 10
GAMGPCG:  Solving for p, Initial residual = 0.00036869168, Final residual = 3.5754707e-06, No Iterations 139
GAMGPCG:  Solving for p, Initial residual = 2.1698292e-05, Final residual = 8.2523704e-07, No Iterations 8
time step continuity errors : sum local = 4.4425432e-09, global = -3.7504466e-11, cumulative = 5.6349068e-09
GAMGPCG:  Solving for p, Initial residual = 0.00018743526, Final residual = 1.7196772e-06, No Iterations 108
GAMGPCG:  Solving for p, Initial residual = 1.2015112e-05, Final residual = 9.2171839e-07, No Iterations 1
time step continuity errors : sum local = 5.0035514e-09, global = 2.5390336e-11, cumulative = 5.6602971e-09
ExecutionTime = 59.44 s  ClockTime = 59 s

fieldMinMax minmaxdomain output:
    min(p) = 0 at location (-0.000525 0 0.216)
    max(p) = 19.542949 at location (0.0014503614 0.00014395118 0.0015)
    min(U) = (-0.0073895715 -0.071082054 1.3380818) at location (0.00010410184 0.0011123239 0.0015)
    max(U) = (0.045675542 0.03647988 1.4590837) at location (-0.0006310689 -0.00050894412 0.0015)

Time = 0.012

Courant Number mean: 0.24284227 max: 0.59873465
smoothSolver:  Solving for Ux, Initial residual = 0.0038619404, Final residual = 5.4939365e-09, No Iterations 10
smoothSolver:  Solving for Uy, Initial residual = 0.0038621343, Final residual = 5.4161737e-09, No Iterations 10
smoothSolver:  Solving for Uz, Initial residual = 0.0021778372, Final residual = 6.5515549e-09, No Iterations 10
GAMGPCG:  Solving for p, Initial residual = 0.00032931978, Final residual = 3.0883709e-06, No Iterations 111
GAMGPCG:  Solving for p, Initial residual = 2.011514e-05, Final residual = 7.941457e-07, No Iterations 8
time step continuity errors : sum local = 4.2585444e-09, global = -3.0750952e-11, cumulative = 5.6295462e-09
GAMGPCG:  Solving for p, Initial residual = 0.00017066102, Final residual = 1.5342761e-06, No Iterations 118
GAMGPCG:  Solving for p, Initial residual = 1.1220926e-05, Final residual = 9.2121186e-07, No Iterations 1
time step continuity errors : sum local = 4.9772283e-09, global = 2.2125997e-11, cumulative = 5.6516722e-09
ExecutionTime = 61.88 s  ClockTime = 62 s

fieldMinMax minmaxdomain output:
    min(p) = 0 at location (-0.000525 0 0.216)
    max(p) = 19.453453 at location (-0.0014503614 0.00014395118 0.0015)
    min(U) = (-0.0073913252 -0.071099753 1.3380707) at location (0.00010410184 0.0011123239 0.0015)
    max(U) = (0.045702447 0.036502147 1.4595861) at location (-0.0006310689 -0.00050894412 0.0015)

Time = 0.0125

Courant Number mean: 0.2428775 max: 0.59881064
smoothSolver:  Solving for Ux, Initial residual = 0.0035160549, Final residual = 4.9660435e-09, No Iterations 10
smoothSolver:  Solving for Uy, Initial residual = 0.003515519, Final residual = 4.9127065e-09, No Iterations 10
smoothSolver:  Solving for Uz, Initial residual = 0.0019664488, Final residual = 5.9305623e-09, No Iterations 10
GAMGPCG:  Solving for p, Initial residual = 0.00029568385, Final residual = 2.8763243e-06, No Iterations 138
GAMGPCG:  Solving for p, Initial residual = 1.8772682e-05, Final residual = 9.9291513e-07, No Iterations 4
time step continuity errors : sum local = 5.3057408e-09, global = -5.8588464e-11, cumulative = 5.5930837e-09
GAMGPCG:  Solving for p, Initial residual = 0.00015586948, Final residual = 1.3990824e-06, No Iterations 184
GAMGPCG:  Solving for p, Initial residual = 1.0455739e-05, Final residual = 7.6932085e-07, No Iterations 1
time step continuity errors : sum local = 4.1389442e-09, global = 2.5435905e-11, cumulative = 5.6185196e-09
ExecutionTime = 65 s  ClockTime = 65 s

fieldMinMax minmaxdomain output:
    min(p) = 0 at location (-0.000525 0 0.216)
    max(p) = 19.373352 at location (0.00014395118 -0.0014503614 0.0015)
    min(U) = (-0.0073928545 -0.071116124 1.3380366) at location (0.00010410184 0.0011123239 0.0015)
    max(U) = (0.045729234 0.036524151 1.4599848) at location (-0.0006310689 -0.00050894412 0.0015)

Time = 0.013

Courant Number mean: 0.24290966 max: 0.59888035
smoothSolver:  Solving for Ux, Initial residual = 0.0031834009, Final residual = 4.4746924e-09, No Iterations 10
smoothSolver:  Solving for Uy, Initial residual = 0.0031841948, Final residual = 4.4311364e-09, No Iterations 10
smoothSolver:  Solving for Uz, Initial residual = 0.0017780814, Final residual = 5.3709232e-09, No Iterations 10
GAMGPCG:  Solving for p, Initial residual = 0.00026901492, Final residual = 2.5968559e-06, No Iterations 127
GAMGPCG:  Solving for p, Initial residual = 1.7113419e-05, Final residual = 6.5527048e-07, No Iterations 4
time step continuity errors : sum local = 3.4904117e-09, global = 1.5375604e-10, cumulative = 5.7722756e-09
GAMGPCG:  Solving for p, Initial residual = 0.00014276204, Final residual = 1.381159e-06, No Iterations 168
GAMGPCG:  Solving for p, Initial residual = 9.7542483e-06, Final residual = 6.7658785e-07, No Iterations 1
time step continuity errors : sum local = 3.6261384e-09, global = -2.3078454e-11, cumulative = 5.7491972e-09
ExecutionTime = 67.89 s  ClockTime = 68 s

fieldMinMax minmaxdomain output:
    min(p) = 0 at location (-0.000525 0 0.216)
    max(p) = 19.30148 at location (0.00014395118 -0.0014503614 0.0015)
    min(U) = (-0.0073941762 -0.071131064 1.3379948) at location (0.00010410184 0.0011123239 0.0015)
    max(U) = (0.045754995 0.036545174 1.4603046) at location (-0.0006310689 -0.00050894412 0.0015)

Time = 0.0135

Courant Number mean: 0.24293903 max: 0.59894359
smoothSolver:  Solving for Ux, Initial residual = 0.0028777123, Final residual = 4.0510027e-09, No Iterations 10
smoothSolver:  Solving for Uy, Initial residual = 0.0028777402, Final residual = 3.9923002e-09, No Iterations 10
smoothSolver:  Solving for Uz, Initial residual = 0.0016097491, Final residual = 4.8649872e-09, No Iterations 10
GAMGPCG:  Solving for p, Initial residual = 0.00024318316, Final residual = 2.2671104e-06, No Iterations 145
GAMGPCG:  Solving for p, Initial residual = 1.5576544e-05, Final residual = 8.4128499e-07, No Iterations 2
time step continuity errors : sum local = 4.4684123e-09, global = 6.5333454e-11, cumulative = 5.8145306e-09
GAMGPCG:  Solving for p, Initial residual = 0.00013016382, Final residual = 1.3001471e-06, No Iterations 132
GAMGPCG:  Solving for p, Initial residual = 9.0541242e-06, Final residual = 7.4229266e-07, No Iterations 1
time step continuity errors : sum local = 3.9645597e-09, global = -1.1947046e-11, cumulative = 5.8025836e-09
ExecutionTime = 70.72 s  ClockTime = 71 s

fieldMinMax minmaxdomain output:
    min(p) = 0 at location (-0.000525 0 0.216)
    max(p) = 19.236929 at location (-0.0014503614 -0.00014395118 0.0015)
    min(U) = (-0.0073953087 -0.07114449 1.3379548) at location (0.00010410184 0.0011123239 0.0015)
    max(U) = (0.045779019 0.03656468 1.4605649) at location (-0.0006310689 -0.00050894412 0.0015)

Time = 0.014

Courant Number mean: 0.24296582 max: 0.59900015
smoothSolver:  Solving for Ux, Initial residual = 0.0026262732, Final residual = 3.6786358e-09, No Iterations 10
smoothSolver:  Solving for Uy, Initial residual = 0.0026263986, Final residual = 3.6144008e-09, No Iterations 10
smoothSolver:  Solving for Uz, Initial residual = 0.001458366, Final residual = 4.4082037e-09, No Iterations 10
GAMGPCG:  Solving for p, Initial residual = 0.0002194441, Final residual = 2.1483732e-06, No Iterations 205
GAMGPCG:  Solving for p, Initial residual = 1.4381621e-05, Final residual = 6.6947206e-07, No Iterations 2
time step continuity errors : sum local = 3.546615e-09, global = -4.1643799e-11, cumulative = 5.7609398e-09
GAMGPCG:  Solving for p, Initial residual = 0.00011894742, Final residual = 1.1358838e-06, No Iterations 186
GAMGPCG:  Solving for p, Initial residual = 8.1885834e-06, Final residual = 5.7178434e-07, No Iterations 1
time step continuity errors : sum local = 3.0443587e-09, global = 2.4015453e-11, cumulative = 5.7849552e-09
ExecutionTime = 74.66 s  ClockTime = 75 s

fieldMinMax minmaxdomain output:
    min(p) = 0 at location (-0.000525 0 0.216)
    max(p) = 19.178849 at location (-0.00014395118 -0.0014503614 0.0015)
    min(U) = (-0.0073962669 -0.071156368 1.3379221) at location (0.00010410184 0.0011123239 0.0015)
    max(U) = (0.045800819 0.036582317 1.46078) at location (-0.0006310689 -0.00050894412 0.0015)

Time = 0.0145

Courant Number mean: 0.24299031 max: 0.59904998
smoothSolver:  Solving for Ux, Initial residual = 0.0023936642, Final residual = 3.325763e-09, No Iterations 10
smoothSolver:  Solving for Uy, Initial residual = 0.0023938091, Final residual = 3.2722102e-09, No Iterations 10
smoothSolver:  Solving for Uz, Initial residual = 0.0013218014, Final residual = 3.9961899e-09, No Iterations 10
GAMGPCG:  Solving for p, Initial residual = 0.00019917038, Final residual = 1.8632835e-06, No Iterations 190
GAMGPCG:  Solving for p, Initial residual = 1.289135e-05, Final residual = 8.839874e-07, No Iterations 1
time step continuity errors : sum local = 4.6720143e-09, global = 2.6700514e-11, cumulative = 5.8116558e-09
GAMGPCG:  Solving for p, Initial residual = 0.00010801152, Final residual = 1.0694108e-06, No Iterations 108
GAMGPCG:  Solving for p, Initial residual = 7.3881922e-06, Final residual = 5.2404145e-07, No Iterations 1
time step continuity errors : sum local = 2.7822857e-09, global = 1.5159093e-11, cumulative = 5.8268148e-09
ExecutionTime = 77.77 s  ClockTime = 78 s

fieldMinMax minmaxdomain output:
    min(p) = 0 at location (-0.000525 0 0.216)
    max(p) = 19.126517 at location (-0.0014503614 0.00014395118 0.0015)
    min(U) = (-0.007397072 -0.071166712 1.3378988) at location (0.00010410184 0.0011123239 0.0015)
    max(U) = (0.045820127 0.036597879 1.4609608) at location (-0.0006310689 -0.00050894412 0.0015)

Time = 0.015

Courant Number mean: 0.24301268 max: 0.59909327
smoothSolver:  Solving for Ux, Initial residual = 0.0021682524, Final residual = 2.9988648e-09, No Iterations 10
smoothSolver:  Solving for Uy, Initial residual = 0.0021676881, Final residual = 2.9520377e-09, No Iterations 10
smoothSolver:  Solving for Uz, Initial residual = 0.0011985765, Final residual = 3.6238272e-09, No Iterations 10
GAMGPCG:  Solving for p, Initial residual = 0.00018344618, Final residual = 1.6513036e-06, No Iterations 170
GAMGPCG:  Solving for p, Initial residual = 1.1432134e-05, Final residual = 8.1923312e-07, No Iterations 1
time step continuity errors : sum local = 4.3205217e-09, global = -2.5231703e-11, cumulative = 5.8015831e-09
GAMGPCG:  Solving for p, Initial residual = 9.7513195e-05, Final residual = 9.1873014e-07, No Iterations 171
GAMGPCG:  Solving for p, Initial residual = 6.6012788e-06, Final residual = 4.518887e-07, No Iterations 1
time step continuity errors : sum local = 2.393067e-09, global = -1.8126377e-11, cumulative = 5.7834568e-09
ExecutionTime = 81.54 s  ClockTime = 82 s

fieldMinMax minmaxdomain output:
    min(p) = 0 at location (-0.000525 0 0.216)
    max(p) = 19.079336 at location (0.00014395118 -0.0014503614 0.0015)
    min(U) = (-0.0073977409 -0.071175587 1.3378853) at location (0.00010410184 0.0011123239 0.0015)
    max(U) = (0.045836858 0.036611334 1.4611151) at location (-0.0006310689 -0.00050894412 0.0015)

Time = 0.0155

Courant Number mean: 0.24303311 max: 0.59913033
smoothSolver:  Solving for Ux, Initial residual = 0.0019559241, Final residual = 9.7011266e-09, No Iterations 9
smoothSolver:  Solving for Uy, Initial residual = 0.0019557402, Final residual = 9.5830731e-09, No Iterations 9
smoothSolver:  Solving for Uz, Initial residual = 0.0010872573, Final residual = 3.2866153e-09, No Iterations 10
GAMGPCG:  Solving for p, Initial residual = 0.00016761183, Final residual = 1.4712149e-06, No Iterations 132
GAMGPCG:  Solving for p, Initial residual = 1.0339984e-05, Final residual = 8.4067511e-07, No Iterations 1
time step continuity errors : sum local = 4.4249881e-09, global = 2.5219049e-11, cumulative = 5.8086758e-09
GAMGPCG:  Solving for p, Initial residual = 8.8228159e-05, Final residual = 9.6173276e-07, No Iterations 144
GAMGPCG:  Solving for p, Initial residual = 6.0140216e-06, Final residual = 4.5196445e-07, No Iterations 1
time step continuity errors : sum local = 2.387914e-09, global = -1.4674694e-11, cumulative = 5.7940011e-09
ExecutionTime = 84.38 s  ClockTime = 84 s

fieldMinMax minmaxdomain output:
    min(p) = 0 at location (-0.000525 0 0.216)
    max(p) = 19.036748 at location (-0.0014503614 0.00014395118 0.0015)
    min(U) = (-0.0073982918 -0.071183094 1.3378806) at location (0.00010410184 0.0011123239 0.0015)
    max(U) = (0.045851067 0.03662273 1.4612484) at location (-0.0006310689 -0.00050894412 0.0015)

Time = 0.016

Courant Number mean: 0.24305181 max: 0.59916164
smoothSolver:  Solving for Ux, Initial residual = 0.0017829006, Final residual = 8.7669692e-09, No Iterations 9
smoothSolver:  Solving for Uy, Initial residual = 0.0017829842, Final residual = 8.6520764e-09, No Iterations 9
smoothSolver:  Solving for Uz, Initial residual = 0.00098683405, Final residual = 9.8831156e-09, No Iterations 9
GAMGPCG:  Solving for p, Initial residual = 0.00015313204, Final residual = 1.4171237e-06, No Iterations 125
GAMGPCG:  Solving for p, Initial residual = 9.260874e-06, Final residual = 6.8072059e-07, No Iterations 1
time step continuity errors : sum local = 3.5767132e-09, global = -2.2815586e-11, cumulative = 5.7711855e-09
GAMGPCG:  Solving for p, Initial residual = 8.0441602e-05, Final residual = 8.8516071e-07, No Iterations 145
GAMGPCG:  Solving for p, Initial residual = 5.4965367e-06, Final residual = 5.004468e-07, No Iterations 1
time step continuity errors : sum local = 2.6384878e-09, global = -1.7024139e-11, cumulative = 5.7541614e-09
ExecutionTime = 86.78 s  ClockTime = 87 s

fieldMinMax minmaxdomain output:
    min(p) = 0 at location (-0.000525 0 0.216)
    max(p) = 18.998267 at location (-0.0014503614 0.00014395118 0.0015)
    min(U) = (-0.0073987436 -0.071189359 1.337883) at location (0.00010410184 0.0011123239 0.0015)
    max(U) = (0.045862914 0.036632214 1.4613646) at location (-0.0006310689 -0.00050894412 0.0015)

Time = 0.0165

Courant Number mean: 0.24306889 max: 0.59918778
smoothSolver:  Solving for Ux, Initial residual = 0.0016242352, Final residual = 7.9470657e-09, No Iterations 9
smoothSolver:  Solving for Uy, Initial residual = 0.0016239766, Final residual = 7.8257551e-09, No Iterations 9
smoothSolver:  Solving for Uz, Initial residual = 0.00089593563, Final residual = 8.9689207e-09, No Iterations 9
GAMGPCG:  Solving for p, Initial residual = 0.00013990315, Final residual = 1.3910846e-06, No Iterations 190
GAMGPCG:  Solving for p, Initial residual = 8.563997e-06, Final residual = 6.2627606e-07, No Iterations 1
time step continuity errors : sum local = 3.2853466e-09, global = 2.4093974e-11, cumulative = 5.7782554e-09
GAMGPCG:  Solving for p, Initial residual = 7.3158399e-05, Final residual = 9.997661e-07, No Iterations 155
GAMGPCG:  Solving for p, Initial residual = 5.0545142e-06, Final residual = 4.3511211e-07, No Iterations 1
time step continuity errors : sum local = 2.2896285e-09, global = 1.8657218e-11, cumulative = 5.7969126e-09
ExecutionTime = 90.21 s  ClockTime = 90 s

fieldMinMax minmaxdomain output:
    min(p) = 0 at location (-0.000525 0 0.216)
    max(p) = 18.963483 at location (0.00014395118 -0.0014503614 0.0015)
    min(U) = (-0.0073991105 -0.071194529 1.3378907) at location (0.00010410184 0.0011123239 0.0015)
    max(U) = (0.045872633 0.036639987 1.4614663) at location (-0.0006310689 -0.00050894412 0.0015)

Time = 0.017

Courant Number mean: 0.24308452 max: 0.59920932
smoothSolver:  Solving for Ux, Initial residual = 0.0014709177, Final residual = 7.204346e-09, No Iterations 9
smoothSolver:  Solving for Uy, Initial residual = 0.0014712302, Final residual = 7.0985226e-09, No Iterations 9
smoothSolver:  Solving for Uz, Initial residual = 0.00081347423, Final residual = 8.1417273e-09, No Iterations 9
GAMGPCG:  Solving for p, Initial residual = 0.00012670943, Final residual = 1.2546542e-06, No Iterations 198
GAMGPCG:  Solving for p, Initial residual = 7.6232062e-06, Final residual = 6.1512332e-07, No Iterations 1
time step continuity errors : sum local = 3.222099e-09, global = 2.5245546e-11, cumulative = 5.8221581e-09
GAMGPCG:  Solving for p, Initial residual = 6.6080866e-05, Final residual = 9.5006346e-07, No Iterations 156
GAMGPCG:  Solving for p, Initial residual = 4.6222565e-06, Final residual = 5.0047083e-07, No Iterations 1
time step continuity errors : sum local = 2.6289588e-09, global = 2.6036329e-11, cumulative = 5.8481945e-09
ExecutionTime = 93.52 s  ClockTime = 94 s

fieldMinMax minmaxdomain output:
    min(p) = 0 at location (-0.000525 0 0.216)
    max(p) = 18.932011 at location (0.00014395118 -0.0014503614 0.0015)
    min(U) = (-0.0073994071 -0.071198748 1.3379018) at location (0.00010410184 0.0011123239 0.0015)
    max(U) = (0.045880487 0.036646261 1.4615555) at location (-0.0006310689 -0.00050894412 0.0015)

Time = 0.0175

Courant Number mean: 0.2430988 max: 0.59922691
smoothSolver:  Solving for Ux, Initial residual = 0.0013278249, Final residual = 6.5343017e-09, No Iterations 9
smoothSolver:  Solving for Uy, Initial residual = 0.0013278973, Final residual = 6.4381931e-09, No Iterations 9
smoothSolver:  Solving for Uz, Initial residual = 0.00073874297, Final residual = 7.3922871e-09, No Iterations 9
GAMGPCG:  Solving for p, Initial residual = 0.00011541233, Final residual = 1.068987e-06, No Iterations 160
GAMGPCG:  Solving for p, Initial residual = 6.7212665e-06, Final residual = 4.9085001e-07, No Iterations 1
time step continuity errors : sum local = 2.5676965e-09, global = -1.6729211e-11, cumulative = 5.8314653e-09
GAMGPCG:  Solving for p, Initial residual = 5.9691891e-05, Final residual = 8.9001882e-07, No Iterations 146
GAMGPCG:  Solving for p, Initial residual = 4.1629059e-06, Final residual = 4.5439559e-07, No Iterations 1
time step continuity errors : sum local = 2.3831299e-09, global = 2.4086097e-11, cumulative = 5.8555514e-09
ExecutionTime = 96.36 s  ClockTime = 96 s

fieldMinMax minmaxdomain output:
    min(p) = 0 at location (-0.000525 0 0.216)
    max(p) = 18.903512 at location (0.00014395118 -0.0014503614 0.0015)
    min(U) = (-0.0073996488 -0.071202162 1.3379148) at location (0.00010410184 0.0011123239 0.0015)
    max(U) = (0.045886755 0.036651265 1.4616338) at location (-0.0006310689 -0.00050894412 0.0015)

Time = 0.018

Courant Number mean: 0.24311185 max: 0.59924117
smoothSolver:  Solving for Ux, Initial residual = 0.0012084086, Final residual = 5.932418e-09, No Iterations 9
smoothSolver:  Solving for Uy, Initial residual = 0.0012085649, Final residual = 5.8405791e-09, No Iterations 9
smoothSolver:  Solving for Uz, Initial residual = 0.00067110329, Final residual = 6.7124931e-09, No Iterations 9
GAMGPCG:  Solving for p, Initial residual = 0.00010513088, Final residual = 1.0176719e-06, No Iterations 127
GAMGPCG:  Solving for p, Initial residual = 6.0404701e-06, Final residual = 5.3126266e-07, No Iterations 1
time step continuity errors : sum local = 2.7757048e-09, global = 2.9559992e-11, cumulative = 5.8851113e-09
GAMGPCG:  Solving for p, Initial residual = 5.4394025e-05, Final residual = 9.5013148e-07, No Iterations 187
GAMGPCG:  Solving for p, Initial residual = 3.8041153e-06, Final residual = 4.3305335e-07, No Iterations 1
time step continuity errors : sum local = 2.267909e-09, global = 1.9759385e-11, cumulative = 5.9048707e-09
ExecutionTime = 99.12 s  ClockTime = 99 s

fieldMinMax minmaxdomain output:
    min(p) = 0 at location (-0.000525 0 0.216)
    max(p) = 18.877706 at location (-0.0014503614 0.00014395118 0.0015)
    min(U) = (-0.0073998445 -0.071204907 1.3379283) at location (0.00010410184 0.0011123239 0.0015)
    max(U) = (0.045891707 0.03665522 1.4617021) at location (-0.0006310689 -0.00050894412 0.0015)

Time = 0.0185

Courant Number mean: 0.24312379 max: 0.59925266
smoothSolver:  Solving for Ux, Initial residual = 0.0011040389, Final residual = 5.3913348e-09, No Iterations 9
smoothSolver:  Solving for Uy, Initial residual = 0.0011043514, Final residual = 5.3055936e-09, No Iterations 9
smoothSolver:  Solving for Uz, Initial residual = 0.00060979335, Final residual = 6.0961054e-09, No Iterations 9
GAMGPCG:  Solving for p, Initial residual = 9.5361503e-05, Final residual = 9.9381961e-07, No Iterations 144
GAMGPCG:  Solving for p, Initial residual = 5.4824812e-06, Final residual = 4.5165222e-07, No Iterations 1
time step continuity errors : sum local = 2.3571292e-09, global = -2.1415219e-11, cumulative = 5.8834555e-09
GAMGPCG:  Solving for p, Initial residual = 4.9540165e-05, Final residual = 9.249511e-07, No Iterations 141
GAMGPCG:  Solving for p, Initial residual = 3.4626453e-06, Final residual = 4.5119869e-07, No Iterations 1
time step continuity errors : sum local = 2.3598126e-09, global = 2.7877e-11, cumulative = 5.9113325e-09
ExecutionTime = 101.82 s  ClockTime = 102 s

fieldMinMax minmaxdomain output:
    min(p) = 0 at location (-0.000525 0 0.216)
    max(p) = 18.854325 at location (0.0014503614 0.00014395118 0.0015)
    min(U) = (-0.0074000047 -0.071207107 1.3379414) at location (0.00010410184 0.0011123239 0.0015)
    max(U) = (0.045895593 0.036658324 1.4617616) at location (-0.0006310689 -0.00050894412 0.0015)

Time = 0.019

Courant Number mean: 0.24313469 max: 0.59926189
smoothSolver:  Solving for Ux, Initial residual = 0.0010043957, Final residual = 4.9005469e-09, No Iterations 9
smoothSolver:  Solving for Uy, Initial residual = 0.0010045738, Final residual = 4.8238517e-09, No Iterations 9
smoothSolver:  Solving for Uz, Initial residual = 0.00055413667, Final residual = 5.5370755e-09, No Iterations 9
GAMGPCG:  Solving for p, Initial residual = 8.6946108e-05, Final residual = 9.5926383e-07, No Iterations 168
GAMGPCG:  Solving for p, Initial residual = 4.9993834e-06, Final residual = 4.4971398e-07, No Iterations 1
time step continuity errors : sum local = 2.3446271e-09, global = -1.7721616e-11, cumulative = 5.8936109e-09
GAMGPCG:  Solving for p, Initial residual = 4.500253e-05, Final residual = 9.8673264e-07, No Iterations 166
GAMGPCG:  Solving for p, Initial residual = 3.2465857e-06, Final residual = 4.1397221e-07, No Iterations 1
time step continuity errors : sum local = 2.1625068e-09, global = -1.9875185e-11, cumulative = 5.8737357e-09
ExecutionTime = 105.03 s  ClockTime = 105 s

fieldMinMax minmaxdomain output:
    min(p) = 0 at location (-0.000525 0 0.216)
    max(p) = 18.833111 at location (-0.0014503614 0.00014395118 0.0015)
    min(U) = (-0.0074001352 -0.071208868 1.3379535) at location (0.00010410184 0.0011123239 0.0015)
    max(U) = (0.045898635 0.036660757 1.461813) at location (-0.0006310689 -0.00050894412 0.0015)

Time = 0.0195

Courant Number mean: 0.24314468 max: 0.59926928
smoothSolver:  Solving for Ux, Initial residual = 0.00091490614, Final residual = 4.4622694e-09, No Iterations 9
smoothSolver:  Solving for Uy, Initial residual = 0.00091502816, Final residual = 4.385129e-09, No Iterations 9
smoothSolver:  Solving for Uz, Initial residual = 0.00050365906, Final residual = 5.0299126e-09, No Iterations 9
GAMGPCG:  Solving for p, Initial residual = 7.986781e-05, Final residual = 9.8347963e-07, No Iterations 136
GAMGPCG:  Solving for p, Initial residual = 4.5855648e-06, Final residual = 4.601779e-07, No Iterations 1
time step continuity errors : sum local = 2.396955e-09, global = -2.692326e-11, cumulative = 5.8468124e-09
GAMGPCG:  Solving for p, Initial residual = 4.0806426e-05, Final residual = 9.5601699e-07, No Iterations 180
GAMGPCG:  Solving for p, Initial residual = 3.0437632e-06, Final residual = 4.3722087e-07, No Iterations 1
time step continuity errors : sum local = 2.2814426e-09, global = -1.8480852e-11, cumulative = 5.8283316e-09
ExecutionTime = 108.24 s  ClockTime = 108 s

fieldMinMax minmaxdomain output:
    min(p) = 0 at location (-0.000525 0 0.216)
    max(p) = 18.813888 at location (0.0014503614 0.00014395118 0.0015)
    min(U) = (-0.0074002433 -0.07121028 1.3379641) at location (0.00010410184 0.0011123239 0.0015)
    max(U) = (0.04590102 0.036662669 1.4618572) at location (-0.0006310689 -0.00050894412 0.0015)

Time = 0.02

Courant Number mean: 0.2431538 max: 0.59927523
smoothSolver:  Solving for Ux, Initial residual = 0.00083971719, Final residual = 4.0656447e-09, No Iterations 9
smoothSolver:  Solving for Uy, Initial residual = 0.00083976167, Final residual = 3.9966623e-09, No Iterations 9
smoothSolver:  Solving for Uz, Initial residual = 0.00045783505, Final residual = 4.5695624e-09, No Iterations 9
GAMGPCG:  Solving for p, Initial residual = 7.3291692e-05, Final residual = 9.3190364e-07, No Iterations 118
GAMGPCG:  Solving for p, Initial residual = 4.223e-06, Final residual = 4.6649273e-07, No Iterations 1
time step continuity errors : sum local = 2.4277894e-09, global = 1.9177331e-11, cumulative = 5.8475089e-09
GAMGPCG:  Solving for p, Initial residual = 3.7374638e-05, Final residual = 9.3702972e-07, No Iterations 146
GAMGPCG:  Solving for p, Initial residual = 2.7731164e-06, Final residual = 4.6043632e-07, No Iterations 1
time step continuity errors : sum local = 2.400172e-09, global = 2.5650514e-11, cumulative = 5.8731594e-09
ExecutionTime = 110.66 s  ClockTime = 111 s

fieldMinMax minmaxdomain output:
    min(p) = 0 at location (-0.000525 0 0.216)
    max(p) = 18.796435 at location (-0.00014395118 -0.0014503614 0.0015)
    min(U) = (-0.0074003329 -0.071211421 1.3379732) at location (0.00010410184 0.0011123239 0.0015)
    max(U) = (0.045902905 0.036664184 1.4618949) at location (-0.0006310689 -0.00050894412 0.0015)

Time = 0.0205

Courant Number mean: 0.24316215 max: 0.59928004
smoothSolver:  Solving for Ux, Initial residual = 0.0007696782, Final residual = 3.7068782e-09, No Iterations 9
smoothSolver:  Solving for Uy, Initial residual = 0.00076964694, Final residual = 3.645181e-09, No Iterations 9
smoothSolver:  Solving for Uz, Initial residual = 0.00041619453, Final residual = 4.1517941e-09, No Iterations 9
GAMGPCG:  Solving for p, Initial residual = 6.7152844e-05, Final residual = 9.8473189e-07, No Iterations 129
GAMGPCG:  Solving for p, Initial residual = 3.9367768e-06, Final residual = 4.8672444e-07, No Iterations 1
time step continuity errors : sum local = 2.5311266e-09, global = -2.4156245e-11, cumulative = 5.8490032e-09
GAMGPCG:  Solving for p, Initial residual = 3.4141524e-05, Final residual = 9.388096e-07, No Iterations 149
GAMGPCG:  Solving for p, Initial residual = 2.6200848e-06, Final residual = 4.6128971e-07, No Iterations 1
time step continuity errors : sum local = 2.4024202e-09, global = 2.9992449e-11, cumulative = 5.8789956e-09
ExecutionTime = 113.53 s  ClockTime = 114 s

fieldMinMax minmaxdomain output:
    min(p) = 0 at location (-0.000525 0 0.216)
    max(p) = 18.780611 at location (-0.00014395118 0.0014503614 0.0015)
    min(U) = (-0.0074004091 -0.071212349 1.3379806) at location (0.00010410184 0.0011123239 0.0015)
    max(U) = (0.045904411 0.036665397 1.461927) at location (-0.0006310689 -0.00050894412 0.0015)

Time = 0.021

Courant Number mean: 0.24316979 max: 0.59928397
smoothSolver:  Solving for Ux, Initial residual = 0.00070110036, Final residual = 3.3754626e-09, No Iterations 9
smoothSolver:  Solving for Uy, Initial residual = 0.00070104495, Final residual = 3.319046e-09, No Iterations 9
smoothSolver:  Solving for Uz, Initial residual = 0.00037835498, Final residual = 3.772318e-09, No Iterations 9
GAMGPCG:  Solving for p, Initial residual = 6.123309e-05, Final residual = 9.774364e-07, No Iterations 142
GAMGPCG:  Solving for p, Initial residual = 3.6163985e-06, Final residual = 4.6585477e-07, No Iterations 1
time step continuity errors : sum local = 2.4208844e-09, global = 2.5380737e-11, cumulative = 5.9043764e-09
GAMGPCG:  Solving for p, Initial residual = 3.0938054e-05, Final residual = 9.9907828e-07, No Iterations 124
GAMGPCG:  Solving for p, Initial residual = 2.4117411e-06, Final residual = 5.4163929e-07, No Iterations 1
time step continuity errors : sum local = 2.8185288e-09, global = 1.7239951e-11, cumulative = 5.9216163e-09
ExecutionTime = 116.79 s  ClockTime = 117 s

fieldMinMax minmaxdomain output:
    min(p) = 0 at location (-0.000525 0 0.216)
    max(p) = 18.766253 at location (0.00014395118 -0.0014503614 0.0015)
    min(U) = (-0.0074004735 -0.071213115 1.3379866) at location (0.00010410184 0.0011123239 0.0015)
    max(U) = (0.045905638 0.036666387 1.4619542) at location (-0.0006310689 -0.00050894412 0.0015)

Time = 0.0215

Courant Number mean: 0.24317676 max: 0.59928721
smoothSolver:  Solving for Ux, Initial residual = 0.00063767261, Final residual = 3.0812296e-09, No Iterations 9
smoothSolver:  Solving for Uy, Initial residual = 0.00063748353, Final residual = 3.0284296e-09, No Iterations 9
smoothSolver:  Solving for Uz, Initial residual = 0.00034402083, Final residual = 3.427787e-09, No Iterations 9
GAMGPCG:  Solving for p, Initial residual = 5.5709778e-05, Final residual = 9.112548e-07, No Iterations 117
GAMGPCG:  Solving for p, Initial residual = 3.2906254e-06, Final residual = 4.8282272e-07, No Iterations 1
time step continuity errors : sum local = 2.5074454e-09, global = -2.0835655e-11, cumulative = 5.9007807e-09
GAMGPCG:  Solving for p, Initial residual = 2.8166475e-05, Final residual = 8.6766143e-07, No Iterations 141
GAMGPCG:  Solving for p, Initial residual = 2.2523486e-06, Final residual = 5.0694107e-07, No Iterations 1
time step continuity errors : sum local = 2.6359575e-09, global = -2.6220135e-11, cumulative = 5.8745605e-09
ExecutionTime = 119.15 s  ClockTime = 119 s

fieldMinMax minmaxdomain output:
    min(p) = 0 at location (-0.000525 0 0.216)
    max(p) = 18.753204 at location (-0.0014503614 -0.00014395118 0.0015)
    min(U) = (-0.0074005292 -0.071213755 1.3379913) at location (0.00010410184 0.0011123239 0.0015)
    max(U) = (0.045906657 0.036667212 1.4619771) at location (-0.0006310689 -0.00050894412 0.0015)

Time = 0.022

Courant Number mean: 0.24318316 max: 0.59928993
smoothSolver:  Solving for Ux, Initial residual = 0.0005856834, Final residual = 2.8127957e-09, No Iterations 9
smoothSolver:  Solving for Uy, Initial residual = 0.00058571243, Final residual = 2.7652218e-09, No Iterations 9
smoothSolver:  Solving for Uz, Initial residual = 0.00031281956, Final residual = 3.1148806e-09, No Iterations 9
GAMGPCG:  Solving for p, Initial residual = 5.0771508e-05, Final residual = 9.05839e-07, No Iterations 158
GAMGPCG:  Solving for p, Initial residual = 3.1282018e-06, Final residual = 4.502096e-07, No Iterations 1
time step continuity errors : sum local = 2.3367012e-09, global = 3.6652433e-12, cumulative = 5.8782258e-09
GAMGPCG:  Solving for p, Initial residual = 2.5874189e-05, Final residual = 9.8616086e-07, No Iterations 139
GAMGPCG:  Solving for p, Initial residual = 2.2134537e-06, Final residual = 4.836462e-07, No Iterations 1
time step continuity errors : sum local = 2.5130803e-09, global = -2.4555374e-11, cumulative = 5.8536704e-09
ExecutionTime = 122.04 s  ClockTime = 122 s

fieldMinMax minmaxdomain output:
    min(p) = 0 at location (-0.000525 0 0.216)
    max(p) = 18.741373 at location (0.0014503614 0.00014395118 0.0015)
    min(U) = (-0.0074005777 -0.071214296 1.3379949) at location (0.00010410184 0.0011123239 0.0015)
    max(U) = (0.045907521 0.036667912 1.4619964) at location (-0.0006310689 -0.00050894412 0.0015)

Time = 0.0225

Courant Number mean: 0.243189 max: 0.59929222
smoothSolver:  Solving for Ux, Initial residual = 0.00053757035, Final residual = 9.2633897e-09, No Iterations 8
smoothSolver:  Solving for Uy, Initial residual = 0.00053738473, Final residual = 9.1396939e-09, No Iterations 8
smoothSolver:  Solving for Uz, Initial residual = 0.00028443169, Final residual = 9.431598e-09, No Iterations 8
GAMGPCG:  Solving for p, Initial residual = 4.6530028e-05, Final residual = 9.295498e-07, No Iterations 128
GAMGPCG:  Solving for p, Initial residual = 2.8177849e-06, Final residual = 4.1082665e-07, No Iterations 1
time step continuity errors : sum local = 2.1311507e-09, global = 1.319416e-11, cumulative = 5.8668646e-09
GAMGPCG:  Solving for p, Initial residual = 2.3491306e-05, Final residual = 9.5973182e-07, No Iterations 197
GAMGPCG:  Solving for p, Initial residual = 2.0326168e-06, Final residual = 5.6104293e-07, No Iterations 1
time step continuity errors : sum local = 2.913393e-09, global = 1.5412504e-11, cumulative = 5.8822771e-09
ExecutionTime = 124.9 s  ClockTime = 125 s

fieldMinMax minmaxdomain output:
    min(p) = 0 at location (-0.000525 0 0.216)
    max(p) = 18.730632 at location (0.00014395118 -0.0014503614 0.0015)
    min(U) = (-0.0074006189 -0.07121476 1.3379975) at location (0.00010410184 0.0011123239 0.0015)
    max(U) = (0.045908268 0.036668519 1.4620126) at location (-0.0006310689 -0.00050894412 0.0015)

Time = 0.023

Courant Number mean: 0.24319434 max: 0.5992942
smoothSolver:  Solving for Ux, Initial residual = 0.00049063474, Final residual = 8.4549238e-09, No Iterations 8
smoothSolver:  Solving for Uy, Initial residual = 0.00049084759, Final residual = 8.3538053e-09, No Iterations 8
smoothSolver:  Solving for Uz, Initial residual = 0.00025865596, Final residual = 8.5723802e-09, No Iterations 8
GAMGPCG:  Solving for p, Initial residual = 4.2606259e-05, Final residual = 9.1434275e-07, No Iterations 123
GAMGPCG:  Solving for p, Initial residual = 2.7316883e-06, Final residual = 5.6602967e-07, No Iterations 1
time step continuity errors : sum local = 2.9348199e-09, global = -3.2359098e-11, cumulative = 5.849918e-09
GAMGPCG:  Solving for p, Initial residual = 2.1556967e-05, Final residual = 9.6461646e-07, No Iterations 112
GAMGPCG:  Solving for p, Initial residual = 1.9398956e-06, Final residual = 5.0128066e-07, No Iterations 1
time step continuity errors : sum local = 2.6015468e-09, global = -5.6749578e-12, cumulative = 5.844243e-09
ExecutionTime = 127.94 s  ClockTime = 128 s

fieldMinMax minmaxdomain output:
    min(p) = 0 at location (-0.000525 0 0.216)
    max(p) = 18.720859 at location (-0.0014503614 0.00014395118 0.0015)
    min(U) = (-0.0074006554 -0.071215162 1.3379996) at location (0.00010410184 0.0011123239 0.0015)
    max(U) = (0.045908924 0.03666905 1.4620263) at location (-0.0006310689 -0.00050894412 0.0015)

Time = 0.0235

Courant Number mean: 0.24319923 max: 0.5992959
smoothSolver:  Solving for Ux, Initial residual = 0.00044812912, Final residual = 7.707703e-09, No Iterations 8
smoothSolver:  Solving for Uy, Initial residual = 0.00044813499, Final residual = 7.6202946e-09, No Iterations 8
smoothSolver:  Solving for Uz, Initial residual = 0.00023524785, Final residual = 7.7910392e-09, No Iterations 8
GAMGPCG:  Solving for p, Initial residual = 3.9205362e-05, Final residual = 9.1856334e-07, No Iterations 130
GAMGPCG:  Solving for p, Initial residual = 2.5594563e-06, Final residual = 4.7516633e-07, No Iterations 1
time step continuity errors : sum local = 2.4626029e-09, global = 1.9026983e-11, cumulative = 5.86327e-09
GAMGPCG:  Solving for p, Initial residual = 1.9660639e-05, Final residual = 9.0297848e-07, No Iterations 143
GAMGPCG:  Solving for p, Initial residual = 1.801606e-06, Final residual = 5.6546204e-07, No Iterations 1
time step continuity errors : sum local = 2.9330836e-09, global = 8.6562652e-12, cumulative = 5.8719263e-09
ExecutionTime = 132.11 s  ClockTime = 132 s

fieldMinMax minmaxdomain output:
    min(p) = 0 at location (-0.000525 0 0.216)
    max(p) = 18.712001 at location (0.0014503614 0.00014395118 0.0015)
    min(U) = (-0.0074006871 -0.071215513 1.3380011) at location (0.00010410184 0.0011123239 0.0015)
    max(U) = (0.045909506 0.036669521 1.4620378) at location (-0.0006310689 -0.00050894412 0.0015)

Time = 0.024

Courant Number mean: 0.2432037 max: 0.5992974
smoothSolver:  Solving for Ux, Initial residual = 0.00041166433, Final residual = 7.0415079e-09, No Iterations 8
smoothSolver:  Solving for Uy, Initial residual = 0.00041155134, Final residual = 6.951259e-09, No Iterations 8
smoothSolver:  Solving for Uz, Initial residual = 0.00021392969, Final residual = 7.0814346e-09, No Iterations 8
GAMGPCG:  Solving for p, Initial residual = 3.6095589e-05, Final residual = 8.3132974e-07, No Iterations 86
GAMGPCG:  Solving for p, Initial residual = 2.3110744e-06, Final residual = 4.4863468e-07, No Iterations 1
time step continuity errors : sum local = 2.3241505e-09, global = -2.411708e-11, cumulative = 5.8478092e-09
GAMGPCG:  Solving for p, Initial residual = 1.7996872e-05, Final residual = 9.8648241e-07, No Iterations 148
GAMGPCG:  Solving for p, Initial residual = 1.8129036e-06, Final residual = 5.5805397e-07, No Iterations 1
time step continuity errors : sum local = 2.893259e-09, global = 2.3902058e-12, cumulative = 5.8501994e-09
ExecutionTime = 134.57 s  ClockTime = 135 s

fieldMinMax minmaxdomain output:
    min(p) = 0 at location (-0.000525 0 0.216)
    max(p) = 18.703945 at location (0.0014503614 0.00014395118 0.0015)
    min(U) = (-0.0074007144 -0.071215821 1.3380022) at location (0.00010410184 0.0011123239 0.0015)
    max(U) = (0.045910025 0.036669941 1.4620476) at location (-0.0006310689 -0.00050894412 0.0015)

Time = 0.0245

Courant Number mean: 0.2432078 max: 0.5992987
smoothSolver:  Solving for Ux, Initial residual = 0.00037711814, Final residual = 6.4370804e-09, No Iterations 8
smoothSolver:  Solving for Uy, Initial residual = 0.00037695685, Final residual = 6.3550444e-09, No Iterations 8
smoothSolver:  Solving for Uz, Initial residual = 0.00019453818, Final residual = 6.4365632e-09, No Iterations 8
GAMGPCG:  Solving for p, Initial residual = 3.3156144e-05, Final residual = 9.2029575e-07, No Iterations 81
GAMGPCG:  Solving for p, Initial residual = 2.2347572e-06, Final residual = 4.1866452e-07, No Iterations 1
time step continuity errors : sum local = 2.1680826e-09, global = -3.134041e-11, cumulative = 5.818859e-09
GAMGPCG:  Solving for p, Initial residual = 1.6514758e-05, Final residual = 9.1980678e-07, No Iterations 116
GAMGPCG:  Solving for p, Initial residual = 1.6818181e-06, Final residual = 6.9253079e-07, No Iterations 1
time step continuity errors : sum local = 3.5888785e-09, global = -2.6421902e-11, cumulative = 5.7924371e-09
ExecutionTime = 136.97 s  ClockTime = 137 s

fieldMinMax minmaxdomain output:
    min(p) = 0 at location (-0.000525 0 0.216)
    max(p) = 18.696635 at location (0.0014503614 0.00014395118 0.0015)
    min(U) = (-0.0074007378 -0.071216092 1.3380031) at location (0.00010410184 0.0011123239 0.0015)
    max(U) = (0.045910489 0.036670315 1.4620558) at location (-0.0006310689 -0.00050894412 0.0015)

Time = 0.025

Courant Number mean: 0.24321154 max: 0.59929983
smoothSolver:  Solving for Ux, Initial residual = 0.00034374796, Final residual = 5.8834645e-09, No Iterations 8
smoothSolver:  Solving for Uy, Initial residual = 0.00034421801, Final residual = 5.8164164e-09, No Iterations 8
smoothSolver:  Solving for Uz, Initial residual = 0.00017692939, Final residual = 5.8503626e-09, No Iterations 8
GAMGPCG:  Solving for p, Initial residual = 3.0620523e-05, Final residual = 7.1051525e-07, No Iterations 99
GAMGPCG:  Solving for p, Initial residual = 2.0058424e-06, Final residual = 4.5537988e-07, No Iterations 1
time step continuity errors : sum local = 2.3574151e-09, global = 2.6520507e-11, cumulative = 5.8189576e-09
GAMGPCG:  Solving for p, Initial residual = 1.5088771e-05, Final residual = 9.5624801e-07, No Iterations 135
GAMGPCG:  Solving for p, Initial residual = 1.5958919e-06, Final residual = 6.028231e-07, No Iterations 1
time step continuity errors : sum local = 3.1227325e-09, global = 2.2060384e-12, cumulative = 5.8211636e-09
ExecutionTime = 139.48 s  ClockTime = 140 s

fieldMinMax minmaxdomain output:
    min(p) = 0 at location (-0.000525 0 0.216)
    max(p) = 18.689991 at location (0.0014503614 0.00014395118 0.0015)
    min(U) = (-0.0074007584 -0.07121633 1.3380039) at location (0.00010410184 0.0011123239 0.0015)
    max(U) = (0.045910901 0.036670648 1.4620629) at location (-0.0006310689 -0.00050894412 0.0015)

Time = 0.0255

Courant Number mean: 0.24321497 max: 0.59930084
smoothSolver:  Solving for Ux, Initial residual = 0.00031478219, Final residual = 5.3656372e-09, No Iterations 8
smoothSolver:  Solving for Uy, Initial residual = 0.00031483187, Final residual = 5.2981743e-09, No Iterations 8
smoothSolver:  Solving for Uz, Initial residual = 0.00016091282, Final residual = 5.3172841e-09, No Iterations 8
GAMGPCG:  Solving for p, Initial residual = 2.7896224e-05, Final residual = 9.3621356e-07, No Iterations 100
GAMGPCG:  Solving for p, Initial residual = 1.9666649e-06, Final residual = 5.1063018e-07, No Iterations 1
time step continuity errors : sum local = 2.6426167e-09, global = -1.2308452e-11, cumulative = 5.8088552e-09
GAMGPCG:  Solving for p, Initial residual = 1.3639484e-05, Final residual = 9.8794146e-07, No Iterations 118
GAMGPCG:  Solving for p, Initial residual = 1.5464664e-06, Final residual = 5.703448e-07, No Iterations 1
time step continuity errors : sum local = 2.9534037e-09, global = -1.1683891e-11, cumulative = 5.7971713e-09
ExecutionTime = 141.76 s  ClockTime = 142 s

fieldMinMax minmaxdomain output:
    min(p) = 0 at location (-0.000525 0 0.216)
    max(p) = 18.683951 at location (-0.00014395118 0.0014503614 0.0015)
    min(U) = (-0.0074007759 -0.071216538 1.3380045) at location (0.00010410184 0.0011123239 0.0015)
    max(U) = (0.045911268 0.036670944 1.462069) at location (-0.0006310689 -0.00050894412 0.0015)

Time = 0.026

Courant Number mean: 0.2432181 max: 0.59930171
smoothSolver:  Solving for Ux, Initial residual = 0.0002883086, Final residual = 4.9100745e-09, No Iterations 8
smoothSolver:  Solving for Uy, Initial residual = 0.00028837917, Final residual = 4.8460488e-09, No Iterations 8
smoothSolver:  Solving for Uz, Initial residual = 0.00014633435, Final residual = 4.8329258e-09, No Iterations 8
GAMGPCG:  Solving for p, Initial residual = 2.5609861e-05, Final residual = 9.6948473e-07, No Iterations 78
GAMGPCG:  Solving for p, Initial residual = 1.8853276e-06, Final residual = 4.8117677e-07, No Iterations 1
time step continuity errors : sum local = 2.4894863e-09, global = -2.2873219e-11, cumulative = 5.7742981e-09
GAMGPCG:  Solving for p, Initial residual = 1.2579835e-05, Final residual = 8.1250127e-07, No Iterations 78
GAMGPCG:  Solving for p, Initial residual = 1.3726248e-06, Final residual = 8.0122379e-07, No Iterations 1
time step continuity errors : sum local = 4.1475693e-09, global = -1.1071034e-11, cumulative = 5.763227e-09
ExecutionTime = 143.27 s  ClockTime = 143 s

fieldMinMax minmaxdomain output:
    min(p) = 0 at location (-0.000525 0 0.216)
    max(p) = 18.678467 at location (-0.00014395118 0.0014503614 0.0015)
    min(U) = (-0.007400791 -0.071216721 1.3380051) at location (0.00010410184 0.0011123239 0.0015)
    max(U) = (0.04591159 0.036671202 1.4620743) at location (-0.0006310689 -0.00050894412 0.0015)

Time = 0.0265

Courant Number mean: 0.24322096 max: 0.59930248
smoothSolver:  Solving for Ux, Initial residual = 0.00026350186, Final residual = 4.4878098e-09, No Iterations 8
smoothSolver:  Solving for Uy, Initial residual = 0.00026379669, Final residual = 4.4379641e-09, No Iterations 8
smoothSolver:  Solving for Uz, Initial residual = 0.00013308112, Final residual = 4.3928928e-09, No Iterations 8
GAMGPCG:  Solving for p, Initial residual = 2.3744442e-05, Final residual = 8.3570877e-07, No Iterations 106
GAMGPCG:  Solving for p, Initial residual = 1.8110494e-06, Final residual = 5.943823e-07, No Iterations 1
time step continuity errors : sum local = 3.0743918e-09, global = -1.9041508e-11, cumulative = 5.7441855e-09
GAMGPCG:  Solving for p, Initial residual = 1.166246e-05, Final residual = 9.8489101e-07, No Iterations 143
GAMGPCG:  Solving for p, Initial residual = 1.5144953e-06, Final residual = 5.3283499e-07, No Iterations 1
time step continuity errors : sum local = 2.7574008e-09, global = -1.6402703e-11, cumulative = 5.7277828e-09
ExecutionTime = 146.26 s  ClockTime = 146 s

fieldMinMax minmaxdomain output:
    min(p) = 0 at location (-0.000525 0 0.216)
    max(p) = 18.67349 at location (0.0014503614 -0.00014395118 0.0015)
    min(U) = (-0.0074008043 -0.071216879 1.3380057) at location (0.00010410184 0.0011123239 0.0015)
    max(U) = (0.045911871 0.036671429 1.4620788) at location (-0.0006310689 -0.00050894412 0.0015)

Time = 0.027

Courant Number mean: 0.24322358 max: 0.59930314
smoothSolver:  Solving for Ux, Initial residual = 0.00024098976, Final residual = 4.0910952e-09, No Iterations 8
smoothSolver:  Solving for Uy, Initial residual = 0.00024085938, Final residual = 4.0477007e-09, No Iterations 8
smoothSolver:  Solving for Uz, Initial residual = 0.000121036, Final residual = 3.9926406e-09, No Iterations 8
GAMGPCG:  Solving for p, Initial residual = 2.1722077e-05, Final residual = 9.8767652e-07, No Iterations 83
GAMGPCG:  Solving for p, Initial residual = 1.7509146e-06, Final residual = 5.8539831e-07, No Iterations 1
time step continuity errors : sum local = 3.0272088e-09, global = 1.970834e-11, cumulative = 5.7474912e-09
GAMGPCG:  Solving for p, Initial residual = 1.0625698e-05, Final residual = 9.5588566e-07, No Iterations 127
GAMGPCG:  Solving for p, Initial residual = 1.3782693e-06, Final residual = 4.7175423e-07, No Iterations 1
time step continuity errors : sum local = 2.4406285e-09, global = 1.5870108e-11, cumulative = 5.7633613e-09
ExecutionTime = 148.51 s  ClockTime = 149 s

fieldMinMax minmaxdomain output:
    min(p) = 0 at location (-0.000525 0 0.216)
    max(p) = 18.668964 at location (-0.0014503614 -0.00014395118 0.0015)
    min(U) = (-0.0074008155 -0.071217016 1.3380062) at location (0.00010410184 0.0011123239 0.0015)
    max(U) = (0.045912116 0.036671625 1.4620828) at location (-0.0006310689 -0.00050894412 0.0015)

Time = 0.0275

Courant Number mean: 0.24322598 max: 0.59930372
smoothSolver:  Solving for Ux, Initial residual = 0.00022085529, Final residual = 3.7464808e-09, No Iterations 8
smoothSolver:  Solving for Uy, Initial residual = 0.00022058663, Final residual = 3.6972233e-09, No Iterations 8
smoothSolver:  Solving for Uz, Initial residual = 0.00011007251, Final residual = 3.6287659e-09, No Iterations 8
GAMGPCG:  Solving for p, Initial residual = 1.9903287e-05, Final residual = 9.1575038e-07, No Iterations 129
GAMGPCG:  Solving for p, Initial residual = 1.6599999e-06, Final residual = 6.5591821e-07, No Iterations 1
time step continuity errors : sum local = 3.39115e-09, global = 5.0956627e-12, cumulative = 5.7684569e-09
GAMGPCG:  Solving for p, Initial residual = 9.6484192e-06, Final residual = 8.3679962e-07, No Iterations 106
GAMGPCG:  Solving for p, Initial residual = 1.2468343e-06, Final residual = 6.3411848e-07, No Iterations 1
[...]
smoothSolver:  Solving for Uy, Initial residual = 1.5305333e-06, Final residual = 4.9932239e-09, No Iterations 4
smoothSolver:  Solving for Uz, Initial residual = 2.3615369e-09, Final residual = 2.3615369e-09, No Iterations 0
GAMGPCG:  Solving for p, Initial residual = 9.8789768e-07, Final residual = 9.8789768e-07, No Iterations 0
GAMGPCG:  Solving for p, Initial residual = 9.8789768e-07, Final residual = 9.8789768e-07, No Iterations 0
time step continuity errors : sum local = 5.0958952e-09, global = -7.0743808e-12, cumulative = 6.3459352e-09
GAMGPCG:  Solving for p, Initial residual = 9.7580681e-07, Final residual = 9.7580681e-07, No Iterations 0
GAMGPCG:  Solving for p, Initial residual = 9.7580681e-07, Final residual = 9.7580681e-07, No Iterations 0
time step continuity errors : sum local = 5.0335266e-09, global = -9.5584112e-12, cumulative = 6.3363768e-09
ExecutionTime = 253.44 s  ClockTime = 254 s

fieldMinMax minmaxdomain output:
    min(p) = 0 at location (-0.000525 0 0.216)
    max(p) = 18.624215 at location (-0.0014503614 0.00014395118 0.0015)
    min(U) = (-0.007400883 -0.071217847 1.338011) at location (0.00010410184 0.0011123239 0.0015)
    max(U) = (0.045913569 0.03667279 1.4621097) at location (-0.0006310689 -0.00050894412 0.0015)

Time = 0.194

Courant Number mean: 0.24325135 max: 0.59930721
smoothSolver:  Solving for Ux, Initial residual = 7.1927203e-07, Final residual = 6.8355365e-09, No Iterations 3
smoothSolver:  Solving for Uy, Initial residual = 1.3413584e-06, Final residual = 4.616336e-09, No Iterations 4
smoothSolver:  Solving for Uz, Initial residual = 4.5617532e-09, Final residual = 4.5617532e-09, No Iterations 0
GAMGPCG:  Solving for p, Initial residual = 1.4910865e-06, Final residual = 4.2252032e-07, No Iterations 1
GAMGPCG:  Solving for p, Initial residual = 6.6525286e-07, Final residual = 6.6525286e-07, No Iterations 0
time step continuity errors : sum local = 3.4315917e-09, global = -2.0075781e-11, cumulative = 6.316301e-09
GAMGPCG:  Solving for p, Initial residual = 1.4748967e-06, Final residual = 2.1625169e-07, No Iterations 1
GAMGPCG:  Solving for p, Initial residual = 4.4697067e-07, Final residual = 4.4697067e-07, No Iterations 0
time step continuity errors : sum local = 2.3056189e-09, global = -1.0984564e-11, cumulative = 6.3053164e-09
ExecutionTime = 253.56 s  ClockTime = 254 s

fieldMinMax minmaxdomain output:
    min(p) = 0 at location (-0.000525 0 0.216)
    max(p) = 18.624215 at location (-0.0014503614 -0.00014395118 0.0015)
    min(U) = (-0.007400883 -0.071217847 1.338011) at location (0.00010410184 0.0011123239 0.0015)
    max(U) = (0.045913569 0.03667279 1.4621097) at location (-0.0006310689 -0.00050894412 0.0015)

Time = 0.1945

Courant Number mean: 0.24325134 max: 0.59930721
smoothSolver:  Solving for Ux, Initial residual = 1.3191913e-06, Final residual = 2.6409318e-09, No Iterations 4
smoothSolver:  Solving for Uy, Initial residual = 2.901142e-06, Final residual = 2.795759e-09, No Iterations 5
smoothSolver:  Solving for Uz, Initial residual = 2.7848182e-09, Final residual = 2.7848182e-09, No Iterations 0
GAMGPCG:  Solving for p, Initial residual = 1.3108379e-06, Final residual = 4.4139081e-07, No Iterations 1
GAMGPCG:  Solving for p, Initial residual = 6.1036773e-07, Final residual = 6.1036773e-07, No Iterations 0
time step continuity errors : sum local = 3.1484754e-09, global = -3.8655965e-11, cumulative = 6.2666605e-09
GAMGPCG:  Solving for p, Initial residual = 1.2479555e-06, Final residual = 4.0280336e-07, No Iterations 1
GAMGPCG:  Solving for p, Initial residual = 6.0953041e-07, Final residual = 6.0953041e-07, No Iterations 0
time step continuity errors : sum local = 3.1441546e-09, global = -1.6393618e-11, cumulative = 6.2502669e-09
ExecutionTime = 253.68 s  ClockTime = 254 s

fieldMinMax minmaxdomain output:
    min(p) = 0 at location (-0.000525 0 0.216)
    max(p) = 18.624215 at location (-0.0014503614 -0.00014395118 0.0015)
    min(U) = (-0.007400883 -0.071217847 1.338011) at location (0.00010410184 0.0011123239 0.0015)
    max(U) = (0.045913569 0.03667279 1.4621097) at location (-0.0006310689 -0.00050894412 0.0015)

Time = 0.195

Courant Number mean: 0.24325134 max: 0.59930721
smoothSolver:  Solving for Ux, Initial residual = 1.3559625e-06, Final residual = 2.7140775e-09, No Iterations 4
smoothSolver:  Solving for Uy, Initial residual = 2.3318849e-06, Final residual = 7.4193525e-09, No Iterations 4
smoothSolver:  Solving for Uz, Initial residual = 2.8755012e-09, Final residual = 2.8755012e-09, No Iterations 0
GAMGPCG:  Solving for p, Initial residual = 1.6952118e-06, Final residual = 4.2867865e-07, No Iterations 1
GAMGPCG:  Solving for p, Initial residual = 6.920497e-07, Final residual = 6.920497e-07, No Iterations 0
time step continuity errors : sum local = 3.5698176e-09, global = -1.5758093e-11, cumulative = 6.2345088e-09
GAMGPCG:  Solving for p, Initial residual = 1.5785004e-06, Final residual = 1.3717217e-07, No Iterations 1
GAMGPCG:  Solving for p, Initial residual = 3.7540633e-07, Final residual = 3.7540633e-07, No Iterations 0
time step continuity errors : sum local = 1.9364668e-09, global = -3.5769451e-12, cumulative = 6.2309318e-09
ExecutionTime = 253.89 s  ClockTime = 254 s

fieldMinMax minmaxdomain output:
    min(p) = 0 at location (-0.000525 0 0.216)
    max(p) = 18.624215 at location (0.0014503614 -0.00014395118 0.0015)
    min(U) = (-0.007400883 -0.071217847 1.338011) at location (0.00010410184 0.0011123239 0.0015)
    max(U) = (0.045913569 0.03667279 1.4621097) at location (-0.0006310689 -0.00050894412 0.0015)

Time = 0.1955

Courant Number mean: 0.24325134 max: 0.59930721
smoothSolver:  Solving for Ux, Initial residual = 1.0735013e-06, Final residual = 9.2212195e-09, No Iterations 3
smoothSolver:  Solving for Uy, Initial residual = 2.0366801e-06, Final residual = 6.8987983e-09, No Iterations 4
smoothSolver:  Solving for Uz, Initial residual = 2.5965452e-09, Final residual = 2.5965452e-09, No Iterations 0
GAMGPCG:  Solving for p, Initial residual = 1.1791867e-06, Final residual = 3.3748311e-07, No Iterations 1
GAMGPCG:  Solving for p, Initial residual = 5.282659e-07, Final residual = 5.282659e-07, No Iterations 0
time step continuity errors : sum local = 2.7249668e-09, global = 5.4994351e-13, cumulative = 6.2314818e-09
GAMGPCG:  Solving for p, Initial residual = 1.1375903e-06, Final residual = 1.5841146e-07, No Iterations 1
GAMGPCG:  Solving for p, Initial residual = 3.3770989e-07, Final residual = 3.3770989e-07, No Iterations 0
time step continuity errors : sum local = 1.7420162e-09, global = 4.144853e-12, cumulative = 6.2356266e-09
ExecutionTime = 254 s  ClockTime = 254 s

fieldMinMax minmaxdomain output:
    min(p) = 0 at location (-0.000525 0 0.216)
    max(p) = 18.624215 at location (-0.0014503614 -0.00014395118 0.0015)
    min(U) = (-0.007400883 -0.071217847 1.338011) at location (0.00010410184 0.0011123239 0.0015)
    max(U) = (0.045913569 0.03667279 1.4621097) at location (-0.0006310689 -0.00050894412 0.0015)

Time = 0.196

Courant Number mean: 0.24325134 max: 0.59930721
smoothSolver:  Solving for Ux, Initial residual = 9.4753577e-07, Final residual = 8.5056999e-09, No Iterations 3
smoothSolver:  Solving for Uy, Initial residual = 1.5549175e-06, Final residual = 5.0123128e-09, No Iterations 4
smoothSolver:  Solving for Uz, Initial residual = 2.4267137e-09, Final residual = 2.4267137e-09, No Iterations 0
GAMGPCG:  Solving for p, Initial residual = 1.0151094e-06, Final residual = 2.8872601e-07, No Iterations 1
GAMGPCG:  Solving for p, Initial residual = 4.5029916e-07, Final residual = 4.5029916e-07, No Iterations 0
time step continuity errors : sum local = 2.3227886e-09, global = 1.4213256e-11, cumulative = 6.2498399e-09
GAMGPCG:  Solving for p, Initial residual = 9.8132411e-07, Final residual = 9.8132411e-07, No Iterations 0
GAMGPCG:  Solving for p, Initial residual = 9.8132411e-07, Final residual = 9.8132411e-07, No Iterations 0
time step continuity errors : sum local = 5.0619862e-09, global = 1.9253241e-11, cumulative = 6.2690931e-09
ExecutionTime = 254.11 s  ClockTime = 254 s

fieldMinMax minmaxdomain output:
    min(p) = 0 at location (-0.000525 0 0.216)
    max(p) = 18.624215 at location (0.00014395118 0.0014503614 0.0015)
    min(U) = (-0.0074008832 -0.071217847 1.338011) at location (0.00010410184 0.0011123239 0.0015)
    max(U) = (0.045913569 0.03667279 1.4621097) at location (-0.0006310689 -0.00050894412 0.0015)

Time = 0.1965

Courant Number mean: 0.24325134 max: 0.59930722
smoothSolver:  Solving for Ux, Initial residual = 1.8352472e-06, Final residual = 4.5525332e-09, No Iterations 4
smoothSolver:  Solving for Uy, Initial residual = 2.6619595e-06, Final residual = 8.7624833e-09, No Iterations 4
smoothSolver:  Solving for Uz, Initial residual = 5.8180583e-09, Final residual = 5.8180583e-09, No Iterations 0
GAMGPCG:  Solving for p, Initial residual = 2.5511263e-06, Final residual = 4.1939158e-07, No Iterations 1
GAMGPCG:  Solving for p, Initial residual = 8.1943305e-07, Final residual = 8.1943305e-07, No Iterations 0
time step continuity errors : sum local = 4.2269045e-09, global = 1.765651e-11, cumulative = 6.2867496e-09
GAMGPCG:  Solving for p, Initial residual = 2.1760351e-06, Final residual = 1.5103639e-07, No Iterations 1
GAMGPCG:  Solving for p, Initial residual = 4.6260397e-07, Final residual = 4.6260397e-07, No Iterations 0
time step continuity errors : sum local = 2.3862603e-09, global = 1.8432889e-12, cumulative = 6.2885929e-09
ExecutionTime = 254.25 s  ClockTime = 254 s

fieldMinMax minmaxdomain output:
    min(p) = 0 at location (-0.000525 0 0.216)
    max(p) = 18.624215 at location (-0.0014503614 0.00014395118 0.0015)
    min(U) = (-0.0074008831 -0.071217847 1.338011) at location (0.00010410184 0.0011123239 0.0015)
    max(U) = (0.045913569 0.03667279 1.4621097) at location (-0.0006310689 -0.00050894412 0.0015)

Time = 0.197

Courant Number mean: 0.24325134 max: 0.59930721
smoothSolver:  Solving for Ux, Initial residual = 1.0301435e-06, Final residual = 2.557548e-09, No Iterations 4
smoothSolver:  Solving for Uy, Initial residual = 2.0051964e-06, Final residual = 7.3511491e-09, No Iterations 4
smoothSolver:  Solving for Uz, Initial residual = 2.2313948e-09, Final residual = 2.2313948e-09, No Iterations 0
GAMGPCG:  Solving for p, Initial residual = 1.1710471e-06, Final residual = 3.0044551e-07, No Iterations 1
GAMGPCG:  Solving for p, Initial residual = 4.4971102e-07, Final residual = 4.4971102e-07, No Iterations 0
time step continuity errors : sum local = 2.3197553e-09, global = -1.7776423e-11, cumulative = 6.2708165e-09
GAMGPCG:  Solving for p, Initial residual = 9.6854005e-07, Final residual = 9.6854005e-07, No Iterations 0
GAMGPCG:  Solving for p, Initial residual = 9.6854005e-07, Final residual = 9.6854005e-07, No Iterations 0
time step continuity errors : sum local = 4.9960425e-09, global = -2.2318129e-11, cumulative = 6.2484984e-09
ExecutionTime = 254.36 s  ClockTime = 255 s

fieldMinMax minmaxdomain output:
    min(p) = 0 at location (-0.000525 0 0.216)
    max(p) = 18.624215 at location (0.0014503614 -0.00014395118 0.0015)
    min(U) = (-0.0074008832 -0.071217847 1.338011) at location (0.00010410184 0.0011123239 0.0015)
    max(U) = (0.045913569 0.03667279 1.4621097) at location (-0.0006310689 -0.00050894412 0.0015)

Time = 0.1975

Courant Number mean: 0.24325135 max: 0.59930722
smoothSolver:  Solving for Ux, Initial residual = 1.872717e-06, Final residual = 4.7263722e-09, No Iterations 4
smoothSolver:  Solving for Uy, Initial residual = 3.5366497e-06, Final residual = 3.6041855e-09, No Iterations 5
smoothSolver:  Solving for Uz, Initial residual = 5.509925e-09, Final residual = 5.509925e-09, No Iterations 0
GAMGPCG:  Solving for p, Initial residual = 2.6276395e-06, Final residual = 6.3568109e-07, No Iterations 1
GAMGPCG:  Solving for p, Initial residual = 1.0102938e-06, Final residual = 1.3742413e-07, No Iterations 1
time step continuity errors : sum local = 7.0887918e-10, global = -1.9638701e-13, cumulative = 6.248302e-09
GAMGPCG:  Solving for p, Initial residual = 1.1237128e-06, Final residual = 2.095051e-07, No Iterations 1
GAMGPCG:  Solving for p, Initial residual = 3.4336806e-07, Final residual = 3.4336806e-07, No Iterations 0
time step continuity errors : sum local = 1.7712031e-09, global = 8.8660557e-12, cumulative = 6.257168e-09
ExecutionTime = 254.48 s  ClockTime = 255 s

fieldMinMax minmaxdomain output:
    min(p) = 0 at location (-0.000525 0 0.216)
    max(p) = 18.624215 at location (0.00014395118 0.0014503614 0.0015)
    min(U) = (-0.0074008831 -0.071217847 1.338011) at location (0.00010410184 0.0011123239 0.0015)
    max(U) = (0.045913569 0.03667279 1.4621097) at location (-0.0006310689 -0.00050894412 0.0015)

Time = 0.198

Courant Number mean: 0.24325134 max: 0.59930721
smoothSolver:  Solving for Ux, Initial residual = 1.0373005e-06, Final residual = 9.9533452e-09, No Iterations 3
smoothSolver:  Solving for Uy, Initial residual = 1.9464447e-06, Final residual = 7.1314345e-09, No Iterations 4
smoothSolver:  Solving for Uz, Initial residual = 1.869374e-09, Final residual = 1.869374e-09, No Iterations 0
GAMGPCG:  Solving for p, Initial residual = 8.2589694e-07, Final residual = 8.2589694e-07, No Iterations 0
GAMGPCG:  Solving for p, Initial residual = 8.2589694e-07, Final residual = 8.2589694e-07, No Iterations 0
time step continuity errors : sum local = 4.260243e-09, global = 1.9906621e-11, cumulative = 6.2770747e-09
GAMGPCG:  Solving for p, Initial residual = 8.2987111e-07, Final residual = 8.2987111e-07, No Iterations 0
GAMGPCG:  Solving for p, Initial residual = 8.2987111e-07, Final residual = 8.2987111e-07, No Iterations 0
time step continuity errors : sum local = 4.2807431e-09, global = 2.3414152e-11, cumulative = 6.3004888e-09
ExecutionTime = 254.57 s  ClockTime = 255 s

fieldMinMax minmaxdomain output:
    min(p) = 0 at location (-0.000525 0 0.216)
    max(p) = 18.624215 at location (0.00014395118 0.0014503614 0.0015)
    min(U) = (-0.0074008831 -0.071217847 1.338011) at location (0.00010410184 0.0011123239 0.0015)
    max(U) = (0.045913569 0.03667279 1.4621097) at location (-0.0006310689 -0.00050894412 0.0015)

Time = 0.1985

Courant Number mean: 0.24325135 max: 0.59930721
smoothSolver:  Solving for Ux, Initial residual = 8.3847515e-07, Final residual = 8.7007548e-09, No Iterations 3
smoothSolver:  Solving for Uy, Initial residual = 1.7430949e-06, Final residual = 6.6627929e-09, No Iterations 4
smoothSolver:  Solving for Uz, Initial residual = 4.111929e-09, Final residual = 4.111929e-09, No Iterations 0
GAMGPCG:  Solving for p, Initial residual = 1.411918e-06, Final residual = 4.8484671e-07, No Iterations 1
GAMGPCG:  Solving for p, Initial residual = 6.1357509e-07, Final residual = 6.1357509e-07, No Iterations 0
time step continuity errors : sum local = 3.1650214e-09, global = 4.3390651e-11, cumulative = 6.3438795e-09
GAMGPCG:  Solving for p, Initial residual = 1.2851386e-06, Final residual = 5.0100656e-07, No Iterations 1
GAMGPCG:  Solving for p, Initial residual = 6.6978708e-07, Final residual = 6.6978708e-07, No Iterations 0
time step continuity errors : sum local = 3.454979e-09, global = 1.8837594e-11, cumulative = 6.3627171e-09
ExecutionTime = 254.68 s  ClockTime = 255 s

fieldMinMax minmaxdomain output:
    min(p) = 0 at location (-0.000525 0 0.216)
    max(p) = 18.624215 at location (-0.00014395118 -0.0014503614 0.0015)
    min(U) = (-0.007400883 -0.071217847 1.338011) at location (0.00010410184 0.0011123239 0.0015)
    max(U) = (0.045913569 0.03667279 1.4621097) at location (-0.0006310689 -0.00050894412 0.0015)

Time = 0.199

Courant Number mean: 0.24325134 max: 0.59930721
smoothSolver:  Solving for Ux, Initial residual = 1.826611e-06, Final residual = 4.266579e-09, No Iterations 4
smoothSolver:  Solving for Uy, Initial residual = 3.3866599e-06, Final residual = 3.2797275e-09, No Iterations 5
smoothSolver:  Solving for Uz, Initial residual = 3.5418156e-09, Final residual = 3.5418156e-09, No Iterations 0
GAMGPCG:  Solving for p, Initial residual = 1.8957439e-06, Final residual = 4.9480906e-07, No Iterations 1
GAMGPCG:  Solving for p, Initial residual = 7.138877e-07, Final residual = 7.138877e-07, No Iterations 0
time step continuity errors : sum local = 3.6824662e-09, global = 3.5431156e-11, cumulative = 6.3981482e-09
GAMGPCG:  Solving for p, Initial residual = 1.5911595e-06, Final residual = 3.7372513e-07, No Iterations 1
GAMGPCG:  Solving for p, Initial residual = 6.2184602e-07, Final residual = 6.2184602e-07, No Iterations 0
time step continuity errors : sum local = 3.2076827e-09, global = 2.234896e-11, cumulative = 6.4204972e-09
ExecutionTime = 254.8 s  ClockTime = 255 s

fieldMinMax minmaxdomain output:
    min(p) = 0 at location (-0.000525 0 0.216)
    max(p) = 18.624215 at location (-0.0014503614 -0.00014395118 0.0015)
    min(U) = (-0.007400883 -0.071217847 1.338011) at location (0.00010410184 0.0011123239 0.0015)
    max(U) = (0.045913569 0.03667279 1.4621097) at location (-0.0006310689 -0.00050894412 0.0015)

Time = 0.1995

Courant Number mean: 0.24325134 max: 0.59930721
smoothSolver:  Solving for Ux, Initial residual = 1.5638074e-06, Final residual = 3.628974e-09, No Iterations 4
smoothSolver:  Solving for Uy, Initial residual = 2.5396848e-06, Final residual = 8.5428018e-09, No Iterations 4
smoothSolver:  Solving for Uz, Initial residual = 2.7489619e-09, Final residual = 2.7489619e-09, No Iterations 0
GAMGPCG:  Solving for p, Initial residual = 1.8201703e-06, Final residual = 4.7450016e-07, No Iterations 1
GAMGPCG:  Solving for p, Initial residual = 7.603999e-07, Final residual = 7.603999e-07, No Iterations 0
time step continuity errors : sum local = 3.9223903e-09, global = 3.1532367e-11, cumulative = 6.4520295e-09
GAMGPCG:  Solving for p, Initial residual = 1.6701838e-06, Final residual = 1.8473914e-07, No Iterations 1
GAMGPCG:  Solving for p, Initial residual = 4.4202696e-07, Final residual = 4.4202696e-07, No Iterations 0
time step continuity errors : sum local = 2.2801179e-09, global = 7.2874649e-12, cumulative = 6.459317e-09
ExecutionTime = 254.91 s  ClockTime = 255 s

fieldMinMax minmaxdomain output:
    min(p) = 0 at location (-0.000525 0 0.216)
    max(p) = 18.624215 at location (-0.0014503614 -0.00014395118 0.0015)
    min(U) = (-0.007400883 -0.071217847 1.338011) at location (0.00010410184 0.0011123239 0.0015)
    max(U) = (0.045913569 0.03667279 1.4621097) at location (-0.0006310689 -0.00050894412 0.0015)

Time = 0.2

Courant Number mean: 0.24325134 max: 0.59930721
smoothSolver:  Solving for Ux, Initial residual = 1.2351032e-06, Final residual = 2.8327475e-09, No Iterations 4
smoothSolver:  Solving for Uy, Initial residual = 2.275315e-06, Final residual = 8.0323204e-09, No Iterations 4
smoothSolver:  Solving for Uz, Initial residual = 1.9009832e-09, Final residual = 1.9009832e-09, No Iterations 0
GAMGPCG:  Solving for p, Initial residual = 1.3230007e-06, Final residual = 3.215885e-07, No Iterations 1
GAMGPCG:  Solving for p, Initial residual = 5.2792991e-07, Final residual = 5.2792991e-07, No Iterations 0
time step continuity errors : sum local = 2.723234e-09, global = -7.4906592e-12, cumulative = 6.4518263e-09
GAMGPCG:  Solving for p, Initial residual = 1.1749017e-06, Final residual = 2.1756325e-07, No Iterations 1
GAMGPCG:  Solving for p, Initial residual = 4.0782732e-07, Final residual = 4.0782732e-07, No Iterations 0
time step continuity errors : sum local = 2.1037047e-09, global = -1.6682946e-11, cumulative = 6.4351434e-09
ExecutionTime = 255.13 s  ClockTime = 255 s

fieldMinMax minmaxdomain output:
    min(p) = 0 at location (-0.000525 0 0.216)
    max(p) = 18.624215 at location (-0.0014503614 -0.00014395118 0.0015)
    min(U) = (-0.007400883 -0.071217847 1.338011) at location (0.00010410184 0.0011123239 0.0015)
    max(U) = (0.045913569 0.03667279 1.4621097) at location (-0.0006310689 -0.00050894412 0.0015)

End

