/*---------------------------------------------------------------------------*\
| =========                 |                                                 |
| \\      /  F ield         | OpenFOAM: The Open Source CFD Toolbox           |
|  \\    /   O peration     | Version:  3.0.x                                 |
|   \\  /    A nd           | Web:      www.OpenFOAM.org                      |
|    \\/     M anipulation  |                                                 |
\*---------------------------------------------------------------------------*/
Build  : 3.0.x-5b548639bc6e
Exec   : icoFoam
Date   : Jun 16 2016
Time   : 18:33:25
Host   : "dagobah"
PID    : 10258
Case   : /home/joegi/OpenFOAM/of_courses/2016a/of_course_tutorials/30x/101Linear_SOLVERS/pipe_icoFoam
nProcs : 1
sigFpe : Enabling floating point exception trapping (FOAM_SIGFPE).
fileModificationChecking : Monitoring run-time modified files using timeStampMaster
allowSystemOperations : Allowing user-supplied system call operations

// * * * * * * * * * * * * * * * * * * * * * * * * * * * * * * * * * * * * * //
Create time

Create mesh for time = 0


PISO: Operating solver in PISO mode

Reading transportProperties

Reading field p

Reading field U

Reading/calculating face flux field phi


Starting time loop

Time = 0.0005

Courant Number mean: 0 max: 0
smoothSolver:  Solving for Ux, Initial residual = 0, Final residual = 0, No Iterations 0
smoothSolver:  Solving for Uy, Initial residual = 0, Final residual = 0, No Iterations 0
smoothSolver:  Solving for Uz, Initial residual = 1, Final residual = 4.7897449e-09, No Iterations 15
GAMGPCG:  Solving for p, Initial residual = 1, Final residual = 0.0099758808, No Iterations 88
GAMGPCG:  Solving for p, Initial residual = 0.00013789387, Final residual = 1.3372666e-06, No Iterations 26
time step continuity errors : sum local = 6.437845e-07, global = -3.0392604e-09, cumulative = -3.0392604e-09
GAMGPCG:  Solving for p, Initial residual = 0.004270942, Final residual = 3.3053486e-05, No Iterations 126
GAMGPCG:  Solving for p, Initial residual = 0.00026758083, Final residual = 9.742129e-07, No Iterations 33
time step continuity errors : sum local = 1.8007955e-07, global = -5.3684893e-09, cumulative = -8.4077497e-09
ExecutionTime = 3.64 s  ClockTime = 4 s

fieldMinMax minmaxdomain output:
    min(p) = 0 at location (-0.000525 0 0.216)
    max(p) = 706.27106 at location (-0.00014395116 -0.0014503614 0.0015)
    min(U) = (-0.0095530218 -0.00041498796 0.35053056) at location (0.0014503614 -0.00014395116 0.0015)
    max(U) = (0.0002055639 0.028492888 0.83281063) at location (-0.00011538917 -0.0012080729 0.0015)

Time = 0.001

Courant Number mean: 0.2386531 max: 0.39453189
smoothSolver:  Solving for Ux, Initial residual = 0.35080136, Final residual = 3.6959163e-09, No Iterations 13
smoothSolver:  Solving for Uy, Initial residual = 0.35103403, Final residual = 5.0906669e-09, No Iterations 13
smoothSolver:  Solving for Uz, Initial residual = 0.60025773, Final residual = 9.4694605e-09, No Iterations 14
GAMGPCG:  Solving for p, Initial residual = 0.019541237, Final residual = 0.00017049313, No Iterations 92
GAMGPCG:  Solving for p, Initial residual = 0.00039341427, Final residual = 3.7380089e-06, No Iterations 20
time step continuity errors : sum local = 1.0030808e-06, global = 8.8921417e-09, cumulative = 4.8439193e-10
GAMGPCG:  Solving for p, Initial residual = 0.0077848882, Final residual = 6.8402914e-05, No Iterations 104
GAMGPCG:  Solving for p, Initial residual = 0.0090355847, Final residual = 6.8955964e-07, No Iterations 46
time step continuity errors : sum local = 6.1734619e-09, global = 8.6677455e-11, cumulative = 5.7106938e-10
ExecutionTime = 6.53 s  ClockTime = 6 s

fieldMinMax minmaxdomain output:
    min(p) = 0 at location (-0.000525 0 0.216)
    max(p) = 29.175323 at location (-0.0011227589 0.00092118364 0.0015)
    min(U) = (-0.00021566496 -8.9826257e-05 0.3209956) at location (-0.00014395116 -0.0014503614 0.0075)
    max(U) = (0.0044221007 0.04311144 1.0305303) at location (-0.00011538917 -0.0012080729 0.0015)

Time = 0.0015

Courant Number mean: 0.23990317 max: 0.47645227
smoothSolver:  Solving for Ux, Initial residual = 0.17324652, Final residual = 3.0213406e-09, No Iterations 13
smoothSolver:  Solving for Uy, Initial residual = 0.17345115, Final residual = 4.2296109e-09, No Iterations 13
smoothSolver:  Solving for Uz, Initial residual = 0.070508193, Final residual = 5.8914868e-09, No Iterations 12
GAMGPCG:  Solving for p, Initial residual = 0.059102425, Final residual = 0.0005872293, No Iterations 51
GAMGPCG:  Solving for p, Initial residual = 0.0039507385, Final residual = 2.9178951e-05, No Iterations 13
time step continuity errors : sum local = 3.5962975e-07, global = 3.1161031e-09, cumulative = 3.6871724e-09
GAMGPCG:  Solving for p, Initial residual = 0.017457754, Final residual = 0.00014996646, No Iterations 48
GAMGPCG:  Solving for p, Initial residual = 0.0026867814, Final residual = 8.1597549e-07, No Iterations 32
time step continuity errors : sum local = 8.1200393e-09, global = -9.880357e-11, cumulative = 3.5883689e-09
ExecutionTime = 8.61 s  ClockTime = 8 s

fieldMinMax minmaxdomain output:
    min(p) = 0 at location (-0.000525 0 0.216)
    max(p) = 35.906871 at location (-0.00014395116 -0.0014503614 0.0015)
    min(U) = (-0.001394477 0.0130532 0.31105808) at location (0.00014395116 -0.0014503614 0.0015)
    max(U) = (0.0054358691 0.051048488 1.1011834) at location (-0.00011538917 -0.0012080729 0.0015)

Time = 0.002

Courant Number mean: 0.24035995 max: 0.5147074
smoothSolver:  Solving for Ux, Initial residual = 0.07029006, Final residual = 3.574323e-09, No Iterations 12
smoothSolver:  Solving for Uy, Initial residual = 0.070395347, Final residual = 4.8888541e-09, No Iterations 12
smoothSolver:  Solving for Uz, Initial residual = 0.046073384, Final residual = 6.5455368e-09, No Iterations 12
GAMGPCG:  Solving for p, Initial residual = 0.013330761, Final residual = 9.3190714e-05, No Iterations 54
GAMGPCG:  Solving for p, Initial residual = 0.0010992608, Final residual = 1.092644e-05, No Iterations 33
time step continuity errors : sum local = 7.3931725e-08, global = -7.9426328e-11, cumulative = 3.5089425e-09
GAMGPCG:  Solving for p, Initial residual = 0.0077528706, Final residual = 6.6958621e-05, No Iterations 130
GAMGPCG:  Solving for p, Initial residual = 0.00043962683, Final residual = 7.0200957e-07, No Iterations 25
time step continuity errors : sum local = 6.0765925e-09, global = 2.1596197e-11, cumulative = 3.5305387e-09
ExecutionTime = 11.15 s  ClockTime = 11 s

fieldMinMax minmaxdomain output:
    min(p) = 0 at location (-0.000525 0 0.216)
    max(p) = 31.019786 at location (-0.0014503614 0.00014395116 0.0015)
    min(U) = (-0.00015679696 -0.0001552934 0.21550381) at location (-0.00014395116 -0.0014503614 0.0075)
    max(U) = (0.0060971916 0.056412506 1.2197155) at location (-0.00010410186 -0.0011123239 0.0015)

Time = 0.0025

Courant Number mean: 0.24071596 max: 0.53885681
smoothSolver:  Solving for Ux, Initial residual = 0.050505167, Final residual = 3.2785653e-09, No Iterations 12
smoothSolver:  Solving for Uy, Initial residual = 0.050516606, Final residual = 4.5436186e-09, No Iterations 12
smoothSolver:  Solving for Uz, Initial residual = 0.032540133, Final residual = 5.0952311e-09, No Iterations 12
GAMGPCG:  Solving for p, Initial residual = 0.0081205235, Final residual = 7.8853613e-05, No Iterations 70
GAMGPCG:  Solving for p, Initial residual = 0.00068196585, Final residual = 6.5163777e-06, No Iterations 28
time step continuity errors : sum local = 4.4605477e-08, global = 7.7646718e-11, cumulative = 3.6081855e-09
GAMGPCG:  Solving for p, Initial residual = 0.0029208023, Final residual = 2.3787139e-05, No Iterations 99
GAMGPCG:  Solving for p, Initial residual = 0.00030483943, Final residual = 8.8986808e-07, No Iterations 20
time step continuity errors : sum local = 7.0438717e-09, global = -3.6931476e-10, cumulative = 3.2388707e-09
ExecutionTime = 13.54 s  ClockTime = 13 s

fieldMinMax minmaxdomain output:
    min(p) = 0 at location (-0.000525 0 0.216)
    max(p) = 28.372924 at location (0.00014395116 -0.0014503614 0.0015)
    min(U) = (-0.0001366986 -0.00014195264 0.19570971) at location (-0.00014395116 -0.0014503614 0.0075)
    max(U) = (0.0065257844 0.060862643 1.2510296) at location (-0.00010410186 -0.0011123239 0.0015)

Time = 0.003

Courant Number mean: 0.24098747 max: 0.55455849
smoothSolver:  Solving for Ux, Initial residual = 0.037478179, Final residual = 9.0059364e-09, No Iterations 11
smoothSolver:  Solving for Uy, Initial residual = 0.037483688, Final residual = 3.4865077e-09, No Iterations 12
smoothSolver:  Solving for Uz, Initial residual = 0.025182474, Final residual = 4.2628027e-09, No Iterations 12
GAMGPCG:  Solving for p, Initial residual = 0.005125036, Final residual = 4.5613074e-05, No Iterations 85
GAMGPCG:  Solving for p, Initial residual = 0.00035802155, Final residual = 2.8358103e-06, No Iterations 17
time step continuity errors : sum local = 1.8922434e-08, global = -1.9440316e-10, cumulative = 3.0444675e-09
GAMGPCG:  Solving for p, Initial residual = 0.0015683382, Final residual = 1.2788311e-05, No Iterations 124
GAMGPCG:  Solving for p, Initial residual = 0.00016813956, Final residual = 9.8049004e-07, No Iterations 14
time step continuity errors : sum local = 7.2665863e-09, global = -1.0191728e-10, cumulative = 2.9425502e-09
ExecutionTime = 16.2 s  ClockTime = 16 s

fieldMinMax minmaxdomain output:
    min(p) = 0 at location (-0.000525 0 0.216)
    max(p) = 26.556026 at location (-0.00014395116 -0.0014503614 0.0015)
    min(U) = (-0.00012064623 -0.00012045341 0.18277688) at location (-0.00014395116 -0.0014503614 0.0075)
    max(U) = (0.0068078642 0.064004264 1.2712291) at location (-0.00010410186 -0.0011123239 0.0015)

Time = 0.0035

Courant Number mean: 0.24120853 max: 0.56726513
smoothSolver:  Solving for Ux, Initial residual = 0.03002972, Final residual = 7.5655327e-09, No Iterations 11
smoothSolver:  Solving for Uy, Initial residual = 0.030033364, Final residual = 2.9414992e-09, No Iterations 12
smoothSolver:  Solving for Uz, Initial residual = 0.020129682, Final residual = 3.6669802e-09, No Iterations 12
GAMGPCG:  Solving for p, Initial residual = 0.0036892407, Final residual = 3.4727236e-05, No Iterations 66
GAMGPCG:  Solving for p, Initial residual = 0.00029589813, Final residual = 1.8829686e-06, No Iterations 21
time step continuity errors : sum local = 1.2233596e-08, global = 6.8581031e-11, cumulative = 3.0111313e-09
GAMGPCG:  Solving for p, Initial residual = 0.0011351305, Final residual = 1.0233702e-05, No Iterations 169
GAMGPCG:  Solving for p, Initial residual = 0.00013846764, Final residual = 8.3057242e-07, No Iterations 14
time step continuity errors : sum local = 5.8488254e-09, global = -6.3352898e-11, cumulative = 2.9477784e-09
ExecutionTime = 18.85 s  ClockTime = 19 s

fieldMinMax minmaxdomain output:
    min(p) = 0 at location (-0.000525 0 0.216)
    max(p) = 25.2291 at location (0.0014503614 -0.00014395116 0.0015)
    min(U) = (-0.00010859475 -9.7309572e-05 0.17371622) at location (-0.00014395116 -0.0014503614 0.0075)
    max(U) = (0.0069958093 0.066211828 1.2854724) at location (-0.00010410186 -0.0011123239 0.0015)

Time = 0.004

Courant Number mean: 0.24140017 max: 0.57717839
smoothSolver:  Solving for Ux, Initial residual = 0.024734645, Final residual = 6.427347e-09, No Iterations 11
smoothSolver:  Solving for Uy, Initial residual = 0.02473448, Final residual = 8.957566e-09, No Iterations 11
smoothSolver:  Solving for Uz, Initial residual = 0.016424605, Final residual = 3.2010498e-09, No Iterations 12
GAMGPCG:  Solving for p, Initial residual = 0.0028147216, Final residual = 2.619536e-05, No Iterations 80
GAMGPCG:  Solving for p, Initial residual = 0.0002304936, Final residual = 2.2108667e-06, No Iterations 13
time step continuity errors : sum local = 1.4014069e-08, global = 5.6200169e-11, cumulative = 3.0039786e-09
GAMGPCG:  Solving for p, Initial residual = 0.00088263068, Final residual = 8.2268909e-06, No Iterations 144
GAMGPCG:  Solving for p, Initial residual = 0.00011045676, Final residual = 9.7798614e-07, No Iterations 12
time step continuity errors : sum local = 6.6096207e-09, global = -3.9525138e-10, cumulative = 2.6087272e-09
ExecutionTime = 21.45 s  ClockTime = 21 s

fieldMinMax minmaxdomain output:
    min(p) = 0 at location (-0.000525 0 0.216)
    max(p) = 24.214481 at location (0.0014503614 -0.00014395116 0.0015)
    min(U) = (-9.9746278e-05 -7.4625286e-05 0.16712469) at location (-0.00014395116 -0.0014503614 0.0075)
    max(U) = (0.0071211576 0.067750954 1.2962841) at location (-0.00010410186 -0.0011123239 0.0015)

Time = 0.0045

Courant Number mean: 0.24157952 max: 0.58402464
smoothSolver:  Solving for Ux, Initial residual = 0.020827029, Final residual = 5.6465508e-09, No Iterations 11
smoothSolver:  Solving for Uy, Initial residual = 0.020829491, Final residual = 7.9768167e-09, No Iterations 11
smoothSolver:  Solving for Uz, Initial residual = 0.013691171, Final residual = 9.3076718e-09, No Iterations 11
GAMGPCG:  Solving for p, Initial residual = 0.0022802284, Final residual = 2.2071595e-05, No Iterations 98
GAMGPCG:  Solving for p, Initial residual = 0.00018594738, Final residual = 1.5193471e-06, No Iterations 18
time step continuity errors : sum local = 9.4205326e-09, global = -1.60014e-10, cumulative = 2.4487132e-09
GAMGPCG:  Solving for p, Initial residual = 0.00074346998, Final residual = 7.1356199e-06, No Iterations 122
GAMGPCG:  Solving for p, Initial residual = 8.9473077e-05, Final residual = 9.7712152e-07, No Iterations 9
time step continuity errors : sum local = 6.384685e-09, global = 2.8346837e-11, cumulative = 2.47706e-09
ExecutionTime = 24.18 s  ClockTime = 24 s

fieldMinMax minmaxdomain output:
    min(p) = 0 at location (-0.000525 0 0.216)
    max(p) = 23.413976 at location (0.00014395116 -0.0014503614 0.0015)
    min(U) = (-9.3076395e-05 -5.3777302e-05 0.16223949) at location (-0.00014395116 -0.0014503614 0.0075)
    max(U) = (0.0072048205 0.068814436 1.304936) at location (-0.00010410186 -0.0011123239 0.0015)

Time = 0.005

Courant Number mean: 0.24174027 max: 0.58872455
smoothSolver:  Solving for Ux, Initial residual = 0.017778007, Final residual = 5.0700926e-09, No Iterations 11
smoothSolver:  Solving for Uy, Initial residual = 0.017779034, Final residual = 7.1807956e-09, No Iterations 11
smoothSolver:  Solving for Uz, Initial residual = 0.011627411, Final residual = 8.2691438e-09, No Iterations 11
GAMGPCG:  Solving for p, Initial residual = 0.0019104762, Final residual = 1.8428495e-05, No Iterations 81
GAMGPCG:  Solving for p, Initial residual = 0.00015072519, Final residual = 1.360114e-06, No Iterations 18
time step continuity errors : sum local = 8.2698515e-09, global = -6.9405592e-11, cumulative = 2.4076544e-09
GAMGPCG:  Solving for p, Initial residual = 0.00065609017, Final residual = 6.506102e-06, No Iterations 163
GAMGPCG:  Solving for p, Initial residual = 7.4484066e-05, Final residual = 9.7021913e-07, No Iterations 8
time step continuity errors : sum local = 6.1628372e-09, global = 1.0978643e-10, cumulative = 2.5174409e-09
ExecutionTime = 27.19 s  ClockTime = 27 s

fieldMinMax minmaxdomain output:
    min(p) = 0 at location (-0.000525 0 0.216)
    max(p) = 22.767139 at location (0.0014503614 -0.00014395116 0.0015)
    min(U) = (-8.8360311e-05 -3.6726425e-05 0.1586007) at location (-0.00014395116 -0.0014503614 0.0075)
    max(U) = (0.0072606396 0.069541801 1.3120599) at location (-0.00010410186 -0.0011123239 0.0015)

Time = 0.0055

Courant Number mean: 0.24188288 max: 0.59192615
smoothSolver:  Solving for Ux, Initial residual = 0.015315643, Final residual = 4.5108717e-09, No Iterations 11
smoothSolver:  Solving for Uy, Initial residual = 0.015318367, Final residual = 6.4210167e-09, No Iterations 11
smoothSolver:  Solving for Uz, Initial residual = 0.0100229, Final residual = 7.3812053e-09, No Iterations 11
GAMGPCG:  Solving for p, Initial residual = 0.0016217442, Final residual = 1.6173546e-05, No Iterations 72
GAMGPCG:  Solving for p, Initial residual = 0.00012503562, Final residual = 1.1032002e-06, No Iterations 15
time step continuity errors : sum local = 6.592866e-09, global = -9.2683316e-11, cumulative = 2.4247575e-09
GAMGPCG:  Solving for p, Initial residual = 0.00058901632, Final residual = 5.8581028e-06, No Iterations 119
GAMGPCG:  Solving for p, Initial residual = 6.1952883e-05, Final residual = 9.6601807e-07, No Iterations 13
time step continuity errors : sum local = 5.9904676e-09, global = 3.0338047e-11, cumulative = 2.4550956e-09
ExecutionTime = 29.73 s  ClockTime = 30 s

fieldMinMax minmaxdomain output:
    min(p) = 0 at location (-0.000525 0 0.216)
    max(p) = 22.234785 at location (0.00014395116 -0.0014503614 0.0015)
    min(U) = (-8.518374e-05 -2.1334253e-05 0.15590359) at location (-0.00014395116 -0.0014503614 0.0075)
    max(U) = (0.007298014 0.070033966 1.3179757) at location (-0.00010410186 -0.0011123239 0.0015)

Time = 0.006

Courant Number mean: 0.24201034 max: 0.59408856
smoothSolver:  Solving for Ux, Initial residual = 0.013296186, Final residual = 3.9857978e-09, No Iterations 11
smoothSolver:  Solving for Uy, Initial residual = 0.013296784, Final residual = 5.7051515e-09, No Iterations 11
smoothSolver:  Solving for Uz, Initial residual = 0.0087182243, Final residual = 6.6108443e-09, No Iterations 11
GAMGPCG:  Solving for p, Initial residual = 0.0013871532, Final residual = 1.3569713e-05, No Iterations 120
GAMGPCG:  Solving for p, Initial residual = 0.00010350531, Final residual = 8.8350687e-07, No Iterations 18
time step continuity errors : sum local = 5.1997725e-09, global = -7.7084129e-11, cumulative = 2.3780115e-09
GAMGPCG:  Solving for p, Initial residual = 0.00052971058, Final residual = 4.906374e-06, No Iterations 186
GAMGPCG:  Solving for p, Initial residual = 5.2032013e-05, Final residual = 8.3022042e-07, No Iterations 12
time step continuity errors : sum local = 5.0434027e-09, global = -9.3164459e-11, cumulative = 2.284847e-09
ExecutionTime = 33.35 s  ClockTime = 33 s

fieldMinMax minmaxdomain output:
    min(p) = 0 at location (-0.000525 0 0.216)
    max(p) = 21.790179 at location (0.00014395116 -0.0014503614 0.0015)
    min(U) = (-8.2737576e-05 -7.1257172e-06 0.15393074) at location (-0.00014395116 -0.0014503614 0.0075)
    max(U) = (0.0073231805 0.070363416 1.3228615) at location (-0.00010410186 -0.0011123239 0.0015)

Time = 0.0065

Courant Number mean: 0.24212415 max: 0.59553682
smoothSolver:  Solving for Ux, Initial residual = 0.011628989, Final residual = 3.5374413e-09, No Iterations 11
smoothSolver:  Solving for Uy, Initial residual = 0.01163017, Final residual = 5.1098086e-09, No Iterations 11
smoothSolver:  Solving for Uz, Initial residual = 0.0076275541, Final residual = 5.9332871e-09, No Iterations 11
GAMGPCG:  Solving for p, Initial residual = 0.0012064729, Final residual = 1.1540217e-05, No Iterations 88
GAMGPCG:  Solving for p, Initial residual = 8.4046436e-05, Final residual = 6.5751942e-07, No Iterations 20
time step continuity errors : sum local = 3.8175584e-09, global = 2.9893191e-11, cumulative = 2.3147402e-09
GAMGPCG:  Solving for p, Initial residual = 0.00047022803, Final residual = 3.8209071e-06, No Iterations 111
GAMGPCG:  Solving for p, Initial residual = 4.3663546e-05, Final residual = 9.3267487e-07, No Iterations 8
time step continuity errors : sum local = 5.5654464e-09, global = 1.1213015e-10, cumulative = 2.4268703e-09
ExecutionTime = 36.08 s  ClockTime = 36 s

fieldMinMax minmaxdomain output:
    min(p) = 0 at location (-0.000525 0 0.216)
    max(p) = 21.41425 at location (0.00014395116 0.0014503614 0.0015)
    min(U) = (-8.0768907e-05 6.2473286e-06 0.15251775) at location (-0.00014395116 -0.0014503614 0.0075)
    max(U) = (0.0073403427 0.070582092 1.3268382) at location (-0.00010410186 -0.0011123239 0.0015)

Time = 0.007

Courant Number mean: 0.2422264 max: 0.59650086
smoothSolver:  Solving for Ux, Initial residual = 0.010238666, Final residual = 3.1620492e-09, No Iterations 11
smoothSolver:  Solving for Uy, Initial residual = 0.010239731, Final residual = 4.5676969e-09, No Iterations 11
smoothSolver:  Solving for Uz, Initial residual = 0.0067034914, Final residual = 5.336168e-09, No Iterations 11
GAMGPCG:  Solving for p, Initial residual = 0.0010548427, Final residual = 7.8721649e-06, No Iterations 78
GAMGPCG:  Solving for p, Initial residual = 7.0866047e-05, Final residual = 9.131843e-07, No Iterations 15
time step continuity errors : sum local = 5.2385357e-09, global = -5.6522054e-11, cumulative = 2.3703483e-09
GAMGPCG:  Solving for p, Initial residual = 0.00041559083, Final residual = 3.9253543e-06, No Iterations 124
GAMGPCG:  Solving for p, Initial residual = 3.8961244e-05, Final residual = 8.2466318e-07, No Iterations 10
time step continuity errors : sum local = 4.8449416e-09, global = 3.1306269e-11, cumulative = 2.4016546e-09
ExecutionTime = 38.58 s  ClockTime = 39 s

fieldMinMax minmaxdomain output:
    min(p) = 0 at location (-0.000525 0 0.216)
    max(p) = 21.093342 at location (-0.0014503614 -0.00014395116 0.0015)
    min(U) = (-7.9570744e-05 1.688903e-05 0.15153576) at location (-0.00014395116 -0.0014503614 0.0075)
    max(U) = (0.0073523018 0.070726753 1.3300093) at location (-0.00010410186 -0.0011123239 0.0015)

Time = 0.0075

Courant Number mean: 0.2423187 max: 0.59714197
smoothSolver:  Solving for Ux, Initial residual = 0.0090664627, Final residual = 2.8051706e-09, No Iterations 11
smoothSolver:  Solving for Uy, Initial residual = 0.0090666313, Final residual = 4.070084e-09, No Iterations 11
smoothSolver:  Solving for Uz, Initial residual = 0.0059135318, Final residual = 4.806052e-09, No Iterations 11
GAMGPCG:  Solving for p, Initial residual = 0.00091872069, Final residual = 8.2415444e-06, No Iterations 80
GAMGPCG:  Solving for p, Initial residual = 6.2835631e-05, Final residual = 8.6833774e-07, No Iterations 15
time step continuity errors : sum local = 4.9282026e-09, global = 6.3810772e-11, cumulative = 2.4654653e-09
GAMGPCG:  Solving for p, Initial residual = 0.00037668265, Final residual = 3.3388051e-06, No Iterations 159
GAMGPCG:  Solving for p, Initial residual = 3.4232703e-05, Final residual = 9.3171019e-07, No Iterations 7
time step continuity errors : sum local = 5.3997134e-09, global = 1.3849825e-11, cumulative = 2.4793152e-09
ExecutionTime = 41.11 s  ClockTime = 41 s

fieldMinMax minmaxdomain output:
    min(p) = 0 at location (-0.000525 0 0.216)
    max(p) = 20.817055 at location (-0.0014503614 -0.00014395116 0.0015)
    min(U) = (-7.8861669e-05 2.5352011e-05 0.15088153) at location (-0.00014395116 -0.0014503614 0.0075)
    max(U) = (0.0073608899 0.070822953 1.3324755) at location (-0.00010410186 -0.0011123239 0.0015)

Time = 0.008

Courant Number mean: 0.24240197 max: 0.59757145
smoothSolver:  Solving for Ux, Initial residual = 0.0080849694, Final residual = 9.1405052e-09, No Iterations 10
smoothSolver:  Solving for Uy, Initial residual = 0.0080860309, Final residual = 3.6449723e-09, No Iterations 11
smoothSolver:  Solving for Uz, Initial residual = 0.0052356962, Final residual = 4.3331221e-09, No Iterations 11
GAMGPCG:  Solving for p, Initial residual = 0.00080124142, Final residual = 7.8421479e-06, No Iterations 97
GAMGPCG:  Solving for p, Initial residual = 5.5596922e-05, Final residual = 9.5472328e-07, No Iterations 15
time step continuity errors : sum local = 5.3670347e-09, global = 1.1545038e-10, cumulative = 2.5947655e-09
GAMGPCG:  Solving for p, Initial residual = 0.00034697766, Final residual = 3.0750866e-06, No Iterations 124
GAMGPCG:  Solving for p, Initial residual = 2.9876858e-05, Final residual = 8.5762663e-07, No Iterations 8
time step continuity errors : sum local = 4.9110239e-09, global = 8.12769e-11, cumulative = 2.6760424e-09
ExecutionTime = 43.99 s  ClockTime = 44 s

fieldMinMax minmaxdomain output:
    min(p) = 0 at location (-0.000525 0 0.216)
    max(p) = 20.577471 at location (-0.0014503614 -0.00014395116 0.0015)
    min(U) = (-7.8488716e-05 -3.1965652e-05 0.15047185) at location (-0.00014395116 0.0014503614 0.0075)
    max(U) = (0.007367303 0.070888197 1.3343393) at location (-0.00010410186 -0.0011123239 0.0015)

Time = 0.0085

Courant Number mean: 0.24247729 max: 0.59786527
smoothSolver:  Solving for Ux, Initial residual = 0.0072344644, Final residual = 8.1479458e-09, No Iterations 10
smoothSolver:  Solving for Uy, Initial residual = 0.00723551, Final residual = 3.2936033e-09, No Iterations 11
smoothSolver:  Solving for Uz, Initial residual = 0.0046592835, Final residual = 3.9093837e-09, No Iterations 11
GAMGPCG:  Solving for p, Initial residual = 0.000709577, Final residual = 6.5387425e-06, No Iterations 113
GAMGPCG:  Solving for p, Initial residual = 4.6874716e-05, Final residual = 8.5280609e-07, No Iterations 13
time step continuity errors : sum local = 4.7535928e-09, global = 6.4363374e-11, cumulative = 2.7404058e-09
GAMGPCG:  Solving for p, Initial residual = 0.00031448734, Final residual = 2.8897599e-06, No Iterations 146
GAMGPCG:  Solving for p, Initial residual = 2.6044017e-05, Final residual = 7.6441722e-07, No Iterations 8
time step continuity errors : sum local = 4.3311228e-09, global = 5.7024563e-11, cumulative = 2.7974304e-09
ExecutionTime = 47.12 s  ClockTime = 47 s

fieldMinMax minmaxdomain output:
    min(p) = 0 at location (-0.000525 0 0.216)
    max(p) = 20.368589 at location (-0.0014503614 0.00014395116 0.0015)
    min(U) = (-7.8378967e-05 3.704122e-05 0.15024009) at location (-0.00014395116 -0.0014503614 0.0075)
    max(U) = (0.0073723285 0.070934365 1.3357018) at location (-0.00010410186 -0.0011123239 0.0015)

Time = 0.009

Courant Number mean: 0.24254548 max: 0.59807457
smoothSolver:  Solving for Ux, Initial residual = 0.0064839364, Final residual = 7.3228896e-09, No Iterations 10
smoothSolver:  Solving for Uy, Initial residual = 0.0064840381, Final residual = 2.9702693e-09, No Iterations 11
smoothSolver:  Solving for Uz, Initial residual = 0.0041551401, Final residual = 3.5286712e-09, No Iterations 11
GAMGPCG:  Solving for p, Initial residual = 0.00063525852, Final residual = 5.2799566e-06, No Iterations 129
GAMGPCG:  Solving for p, Initial residual = 3.9749769e-05, Final residual = 8.3371794e-07, No Iterations 13
time step continuity errors : sum local = 4.612242e-09, global = -5.3363228e-11, cumulative = 2.7440671e-09
GAMGPCG:  Solving for p, Initial residual = 0.00028632743, Final residual = 2.6928486e-06, No Iterations 154
GAMGPCG:  Solving for p, Initial residual = 2.2379228e-05, Final residual = 9.0859587e-07, No Iterations 6
time step continuity errors : sum local = 5.0999376e-09, global = 4.5859839e-11, cumulative = 2.789927e-09
ExecutionTime = 50.74 s  ClockTime = 51 s

fieldMinMax minmaxdomain output:
    min(p) = 0 at location (-0.000525 0 0.216)
    max(p) = 20.185428 at location (0.0014503614 0.00014395116 0.0015)
    min(U) = (-7.843628e-05 4.0837698e-05 0.15013327) at location (-0.00014395116 -0.0014503614 0.0075)
    max(U) = (0.007376391 0.070969046 1.3366598) at location (-0.00010410186 -0.0011123239 0.0015)

Time = 0.0095

Courant Number mean: 0.24260727 max: 0.59823231
smoothSolver:  Solving for Ux, Initial residual = 0.0058178113, Final residual = 6.6351537e-09, No Iterations 10
smoothSolver:  Solving for Uy, Initial residual = 0.0058186894, Final residual = 9.4572017e-09, No Iterations 10
smoothSolver:  Solving for Uz, Initial residual = 0.0037124316, Final residual = 3.1881847e-09, No Iterations 11
GAMGPCG:  Solving for p, Initial residual = 0.0005754651, Final residual = 5.6312018e-06, No Iterations 95
GAMGPCG:  Solving for p, Initial residual = 3.371977e-05, Final residual = 9.6437362e-07, No Iterations 8
time step continuity errors : sum local = 5.2993029e-09, global = 2.19374e-11, cumulative = 2.8118644e-09
GAMGPCG:  Solving for p, Initial residual = 0.00026569087, Final residual = 2.6472002e-06, No Iterations 135
GAMGPCG:  Solving for p, Initial residual = 1.9227849e-05, Final residual = 6.76553e-07, No Iterations 7
time step continuity errors : sum local = 3.7660911e-09, global = -7.0411206e-11, cumulative = 2.7414532e-09
ExecutionTime = 53.78 s  ClockTime = 54 s

fieldMinMax minmaxdomain output:
    min(p) = 0 at location (-0.000525 0 0.216)
    max(p) = 20.02424 at location (-0.0014503614 0.00014395116 0.0015)
    min(U) = (-7.8592981e-05 4.36015e-05 0.15011026) at location (-0.00014395116 -0.0014503614 0.0075)
    max(U) = (0.007379804 0.070997026 1.3373015) at location (-0.00010410186 -0.0011123239 0.0015)

Time = 0.01

Courant Number mean: 0.24266352 max: 0.59835909
smoothSolver:  Solving for Ux, Initial residual = 0.0052530356, Final residual = 5.9929877e-09, No Iterations 10
smoothSolver:  Solving for Uy, Initial residual = 0.0052533159, Final residual = 8.5471133e-09, No Iterations 10
smoothSolver:  Solving for Uz, Initial residual = 0.0033228032, Final residual = 9.5628099e-09, No Iterations 10
GAMGPCG:  Solving for p, Initial residual = 0.00052153045, Final residual = 5.2103371e-06, No Iterations 93
GAMGPCG:  Solving for p, Initial residual = 2.8926667e-05, Final residual = 9.0415163e-07, No Iterations 11
time step continuity errors : sum local = 4.9385909e-09, global = 4.3049018e-11, cumulative = 2.7845022e-09
GAMGPCG:  Solving for p, Initial residual = 0.00024341817, Final residual = 2.357758e-06, No Iterations 154
GAMGPCG:  Solving for p, Initial residual = 1.6322478e-05, Final residual = 8.3235625e-07, No Iterations 5
time step continuity errors : sum local = 4.5993148e-09, global = 1.0095005e-10, cumulative = 2.8854522e-09
ExecutionTime = 56.74 s  ClockTime = 57 s

fieldMinMax minmaxdomain output:
    min(p) = 0 at location (-0.000525 0 0.216)
    max(p) = 19.881765 at location (0.0014503614 -0.00014395116 0.0015)
    min(U) = (-7.8798563e-05 4.5539737e-05 0.15013979) at location (-0.00014395116 -0.0014503614 0.0075)
    max(U) = (0.0073827259 0.071021104 1.3377049) at location (-0.00010410186 -0.0011123239 0.0015)

Time = 0.0105

Courant Number mean: 0.24271467 max: 0.59846732
smoothSolver:  Solving for Ux, Initial residual = 0.0048893839, Final residual = 5.3895856e-09, No Iterations 10
smoothSolver:  Solving for Uy, Initial residual = 0.0048898996, Final residual = 7.704798e-09, No Iterations 10
smoothSolver:  Solving for Uz, Initial residual = 0.0029810923, Final residual = 8.650763e-09, No Iterations 10
GAMGPCG:  Solving for p, Initial residual = 0.00047022095, Final residual = 4.3744429e-06, No Iterations 81
GAMGPCG:  Solving for p, Initial residual = 2.5051711e-05, Final residual = 8.0044452e-07, No Iterations 17
time step continuity errors : sum local = 4.3487294e-09, global = 1.5906224e-10, cumulative = 3.0445145e-09
GAMGPCG:  Solving for p, Initial residual = 0.00022141708, Final residual = 2.1685876e-06, No Iterations 153
GAMGPCG:  Solving for p, Initial residual = 1.4068595e-05, Final residual = 8.5366723e-07, No Iterations 5
time step continuity errors : sum local = 4.6861168e-09, global = 4.8831204e-12, cumulative = 3.0493976e-09
ExecutionTime = 59.52 s  ClockTime = 59 s

fieldMinMax minmaxdomain output:
    min(p) = 0 at location (-0.000525 0 0.216)
    max(p) = 19.755434 at location (-0.0014503614 -0.00014395116 0.0015)
    min(U) = (-7.9014978e-05 4.684922e-05 0.15019886) at location (-0.00014395116 -0.0014503614 0.0075)
    max(U) = (0.0073853042 0.071042885 1.3379357) at location (-0.00010410186 -0.0011123239 0.0015)

Time = 0.011

Courant Number mean: 0.24276126 max: 0.598564
smoothSolver:  Solving for Ux, Initial residual = 0.0045594301, Final residual = 4.8745616e-09, No Iterations 10
smoothSolver:  Solving for Uy, Initial residual = 0.0045598228, Final residual = 7.0033431e-09, No Iterations 10
smoothSolver:  Solving for Uz, Initial residual = 0.0026809563, Final residual = 7.8279912e-09, No Iterations 10
GAMGPCG:  Solving for p, Initial residual = 0.00041853792, Final residual = 4.1500091e-06, No Iterations 79
GAMGPCG:  Solving for p, Initial residual = 2.3474652e-05, Final residual = 8.110162e-07, No Iterations 8
time step continuity errors : sum local = 4.3849513e-09, global = 7.8892944e-11, cumulative = 3.1282905e-09
GAMGPCG:  Solving for p, Initial residual = 0.00020321557, Final residual = 1.8240023e-06, No Iterations 131
GAMGPCG:  Solving for p, Initial residual = 1.2777175e-05, Final residual = 7.0244623e-07, No Iterations 5
time step continuity errors : sum local = 3.8333734e-09, global = -2.2914167e-11, cumulative = 3.1053764e-09
ExecutionTime = 61.82 s  ClockTime = 62 s

fieldMinMax minmaxdomain output:
    min(p) = 0 at location (-0.000525 0 0.216)
    max(p) = 19.643057 at location (0.00014395116 0.0014503614 0.0015)
    min(U) = (-7.9222213e-05 4.7692072e-05 0.15027112) at location (-0.00014395116 -0.0014503614 0.0075)
    max(U) = (0.0073875728 0.071063109 1.3380474) at location (-0.00010410186 -0.0011123239 0.0015)

Time = 0.0115

Courant Number mean: 0.24280364 max: 0.59865267
smoothSolver:  Solving for Ux, Initial residual = 0.0042137808, Final residual = 4.4511396e-09, No Iterations 10
smoothSolver:  Solving for Uy, Initial residual = 0.004213932, Final residual = 6.3899795e-09, No Iterations 10
smoothSolver:  Solving for Uz, Initial residual = 0.0024150094, Final residual = 7.0848992e-09, No Iterations 10
GAMGPCG:  Solving for p, Initial residual = 0.00036889791, Final residual = 3.1541179e-06, No Iterations 84
GAMGPCG:  Solving for p, Initial residual = 2.1449764e-05, Final residual = 7.6332854e-07, No Iterations 8
time step continuity errors : sum local = 4.1092819e-09, global = 6.203334e-11, cumulative = 3.1674097e-09
GAMGPCG:  Solving for p, Initial residual = 0.00018745407, Final residual = 1.760828e-06, No Iterations 130
GAMGPCG:  Solving for p, Initial residual = 1.2111542e-05, Final residual = 9.3942575e-07, No Iterations 3
time step continuity errors : sum local = 5.0996798e-09, global = 5.4025008e-12, cumulative = 3.1728122e-09
ExecutionTime = 64.32 s  ClockTime = 64 s

fieldMinMax minmaxdomain output:
    min(p) = 0 at location (-0.000525 0 0.216)
    max(p) = 19.542954 at location (-0.0014503614 0.00014395116 0.0015)
    min(U) = (-7.9406458e-05 -4.8202193e-05 0.15034553) at location (-0.00014395116 0.0014503614 0.0075)
    max(U) = (0.0073895673 0.071082061 1.338082) at location (-0.00010410186 -0.0011123239 0.0015)

Time = 0.012

Courant Number mean: 0.24284227 max: 0.59873482
smoothSolver:  Solving for Ux, Initial residual = 0.0038614482, Final residual = 4.0385283e-09, No Iterations 10
smoothSolver:  Solving for Uy, Initial residual = 0.0038615692, Final residual = 5.8024239e-09, No Iterations 10
smoothSolver:  Solving for Uz, Initial residual = 0.0021778329, Final residual = 6.4150509e-09, No Iterations 10
GAMGPCG:  Solving for p, Initial residual = 0.00032926342, Final residual = 2.5617847e-06, No Iterations 81
GAMGPCG:  Solving for p, Initial residual = 1.9778825e-05, Final residual = 9.451453e-07, No Iterations 7
time step continuity errors : sum local = 5.0682619e-09, global = 3.4051961e-11, cumulative = 3.2068642e-09
GAMGPCG:  Solving for p, Initial residual = 0.000170454, Final residual = 1.6275285e-06, No Iterations 142
GAMGPCG:  Solving for p, Initial residual = 1.1303e-05, Final residual = 8.9412943e-07, No Iterations 2
time step continuity errors : sum local = 4.8309076e-09, global = -1.4623552e-10, cumulative = 3.0606287e-09
ExecutionTime = 67.14 s  ClockTime = 67 s

fieldMinMax minmaxdomain output:
    min(p) = 0 at location (-0.000525 0 0.216)
    max(p) = 19.453453 at location (0.0014503614 0.00014395116 0.0015)
    min(U) = (-7.9547168e-05 -4.8475106e-05 0.15041517) at location (-0.00014395116 0.0014503614 0.0075)
    max(U) = (0.007391325 0.071099748 1.3380709) at location (-0.00010410186 -0.0011123239 0.0015)

Time = 0.0125

Courant Number mean: 0.24287751 max: 0.5988108
smoothSolver:  Solving for Ux, Initial residual = 0.0035153241, Final residual = 3.6413615e-09, No Iterations 10
smoothSolver:  Solving for Uy, Initial residual = 0.0035154557, Final residual = 5.2454693e-09, No Iterations 10
smoothSolver:  Solving for Uz, Initial residual = 0.0019664469, Final residual = 5.8127759e-09, No Iterations 10
GAMGPCG:  Solving for p, Initial residual = 0.00029614242, Final residual = 2.8278476e-06, No Iterations 108
GAMGPCG:  Solving for p, Initial residual = 1.8736855e-05, Final residual = 7.7716368e-07, No Iterations 7
time step continuity errors : sum local = 4.1528368e-09, global = 9.0999319e-11, cumulative = 3.151628e-09
GAMGPCG:  Solving for p, Initial residual = 0.00015582057, Final residual = 1.5349704e-06, No Iterations 116
GAMGPCG:  Solving for p, Initial residual = 1.061438e-05, Final residual = 9.3036808e-07, No Iterations 1
time step continuity errors : sum local = 5.0053736e-09, global = 7.6213833e-11, cumulative = 3.2278418e-09
ExecutionTime = 69.74 s  ClockTime = 70 s

fieldMinMax minmaxdomain output:
    min(p) = 0 at location (-0.000525 0 0.216)
    max(p) = 19.373322 at location (0.0014503614 0.00014395116 0.0015)
    min(U) = (-7.9668081e-05 -4.8605448e-05 0.15047612) at location (-0.00014395116 0.0014503614 0.0075)
    max(U) = (0.0073928508 0.071116124 1.3380368) at location (-0.00010410186 -0.0011123239 0.0015)

Time = 0.013

Courant Number mean: 0.24290966 max: 0.59888051
smoothSolver:  Solving for Ux, Initial residual = 0.0031830023, Final residual = 3.2785333e-09, No Iterations 10
smoothSolver:  Solving for Uy, Initial residual = 0.0031834104, Final residual = 4.7469668e-09, No Iterations 10
smoothSolver:  Solving for Uz, Initial residual = 0.0017780913, Final residual = 5.2681113e-09, No Iterations 10
GAMGPCG:  Solving for p, Initial residual = 0.00026924332, Final residual = 2.31103e-06, No Iterations 121
GAMGPCG:  Solving for p, Initial residual = 1.6960992e-05, Final residual = 9.8017276e-07, No Iterations 8
time step continuity errors : sum local = 5.2210878e-09, global = 5.7150566e-11, cumulative = 3.2849924e-09
GAMGPCG:  Solving for p, Initial residual = 0.00014258052, Final residual = 1.3923456e-06, No Iterations 144
GAMGPCG:  Solving for p, Initial residual = 9.8149788e-06, Final residual = 7.7081097e-07, No Iterations 1
time step continuity errors : sum local = 4.1311245e-09, global = -4.2413201e-11, cumulative = 3.2425792e-09
ExecutionTime = 72.35 s  ClockTime = 72 s

fieldMinMax minmaxdomain output:
    min(p) = 0 at location (-0.000525 0 0.216)
    max(p) = 19.301474 at location (-0.00014395116 0.0014503614 0.0015)
    min(U) = (-7.9744151e-05 4.8642364e-05 0.15052672) at location (-0.00014395116 -0.0014503614 0.0075)
    max(U) = (0.0073941757 0.071131065 1.337995) at location (-0.00010410186 -0.0011123239 0.0015)

Time = 0.0135

Courant Number mean: 0.24293903 max: 0.59894375
smoothSolver:  Solving for Ux, Initial residual = 0.0028785383, Final residual = 2.9753442e-09, No Iterations 10
smoothSolver:  Solving for Uy, Initial residual = 0.0028791684, Final residual = 4.31075e-09, No Iterations 10
smoothSolver:  Solving for Uz, Initial residual = 0.0016097499, Final residual = 4.7750659e-09, No Iterations 10
GAMGPCG:  Solving for p, Initial residual = 0.00024384255, Final residual = 2.3116249e-06, No Iterations 121
GAMGPCG:  Solving for p, Initial residual = 1.5790847e-05, Final residual = 6.9751943e-07, No Iterations 10
time step continuity errors : sum local = 3.7048298e-09, global = -5.9127561e-11, cumulative = 3.1834516e-09
GAMGPCG:  Solving for p, Initial residual = 0.00013033379, Final residual = 1.2864272e-06, No Iterations 132
GAMGPCG:  Solving for p, Initial residual = 9.0943936e-06, Final residual = 7.4321258e-07, No Iterations 1
time step continuity errors : sum local = 3.9694723e-09, global = 5.0652872e-11, cumulative = 3.2341045e-09
ExecutionTime = 75.19 s  ClockTime = 75 s

fieldMinMax minmaxdomain output:
    min(p) = 0 at location (-0.000525 0 0.216)
    max(p) = 19.236909 at location (-0.00014395116 -0.0014503614 0.0015)
    min(U) = (-7.9790124e-05 -4.8632721e-05 0.15056667) at location (-0.00014395116 0.0014503614 0.0075)
    max(U) = (0.0073953076 0.07114449 1.337955) at location (-0.00010410186 -0.0011123239 0.0015)

Time = 0.014

Courant Number mean: 0.24296582 max: 0.59900031
smoothSolver:  Solving for Ux, Initial residual = 0.0026253623, Final residual = 9.9229038e-09, No Iterations 9
smoothSolver:  Solving for Uy, Initial residual = 0.0026257059, Final residual = 3.9075105e-09, No Iterations 10
smoothSolver:  Solving for Uz, Initial residual = 0.001458374, Final residual = 4.3296324e-09, No Iterations 10
GAMGPCG:  Solving for p, Initial residual = 0.00021936572, Final residual = 1.8022936e-06, No Iterations 147
GAMGPCG:  Solving for p, Initial residual = 1.4021518e-05, Final residual = 8.8726413e-07, No Iterations 3
time step continuity errors : sum local = 4.70041e-09, global = 1.8183441e-11, cumulative = 3.2522879e-09
GAMGPCG:  Solving for p, Initial residual = 0.00011838693, Final residual = 9.3363998e-07, No Iterations 118
GAMGPCG:  Solving for p, Initial residual = 7.9509698e-06, Final residual = 5.8085049e-07, No Iterations 1
time step continuity errors : sum local = 3.0926218e-09, global = 5.6780761e-11, cumulative = 3.3090687e-09
ExecutionTime = 77.68 s  ClockTime = 78 s

fieldMinMax minmaxdomain output:
    min(p) = 0 at location (-0.000525 0 0.216)
    max(p) = 19.178787 at location (0.00014395116 -0.0014503614 0.0015)
    min(U) = (-7.9811161e-05 4.8604457e-05 0.15059679) at location (-0.00014395116 -0.0014503614 0.0075)
    max(U) = (0.0073962676 0.071156367 1.3379222) at location (-0.00010410186 -0.0011123239 0.0015)

Time = 0.0145

Courant Number mean: 0.24299031 max: 0.59905015
smoothSolver:  Solving for Ux, Initial residual = 0.002393094, Final residual = 9.0046091e-09, No Iterations 9
smoothSolver:  Solving for Uy, Initial residual = 0.0023932848, Final residual = 3.5333994e-09, No Iterations 10
smoothSolver:  Solving for Uz, Initial residual = 0.0013218289, Final residual = 3.9271978e-09, No Iterations 10
GAMGPCG:  Solving for p, Initial residual = 0.0001990026, Final residual = 1.740912e-06, No Iterations 101
GAMGPCG:  Solving for p, Initial residual = 1.2697772e-05, Final residual = 9.9215808e-07, No Iterations 1
time step continuity errors : sum local = 5.2437546e-09, global = 1.1219771e-10, cumulative = 3.4212664e-09
GAMGPCG:  Solving for p, Initial residual = 0.0001079169, Final residual = 1.0056345e-06, No Iterations 122
GAMGPCG:  Solving for p, Initial residual = 7.4165954e-06, Final residual = 5.4859955e-07, No Iterations 1
time step continuity errors : sum local = 2.9126693e-09, global = 4.499695e-11, cumulative = 3.4662633e-09
ExecutionTime = 80.01 s  ClockTime = 80 s

fieldMinMax minmaxdomain output:
    min(p) = 0 at location (-0.000525 0 0.216)
    max(p) = 19.1265 at location (-0.00014395116 0.0014503614 0.0015)
    min(U) = (-7.9809768e-05 -4.8576596e-05 0.15061832) at location (-0.00014395116 0.0014503614 0.0075)
    max(U) = (0.0073970732 0.071166713 1.337899) at location (-0.00010410186 -0.0011123239 0.0015)

Time = 0.015

Courant Number mean: 0.24301268 max: 0.59909344
smoothSolver:  Solving for Ux, Initial residual = 0.0021679344, Final residual = 8.1486749e-09, No Iterations 9
smoothSolver:  Solving for Uy, Initial residual = 0.0021678661, Final residual = 3.1965085e-09, No Iterations 10
smoothSolver:  Solving for Uz, Initial residual = 0.0011985842, Final residual = 3.562862e-09, No Iterations 10
GAMGPCG:  Solving for p, Initial residual = 0.00018353964, Final residual = 1.2659593e-06, No Iterations 85
GAMGPCG:  Solving for p, Initial residual = 1.122016e-05, Final residual = 8.1366626e-07, No Iterations 1
time step continuity errors : sum local = 4.2911792e-09, global = 9.419391e-11, cumulative = 3.5604573e-09
GAMGPCG:  Solving for p, Initial residual = 9.7530521e-05, Final residual = 8.4630379e-07, No Iterations 131
GAMGPCG:  Solving for p, Initial residual = 6.6413541e-06, Final residual = 5.305578e-07, No Iterations 1
time step continuity errors : sum local = 2.8096732e-09, global = 4.992671e-11, cumulative = 3.610384e-09
ExecutionTime = 82.47 s  ClockTime = 82 s

fieldMinMax minmaxdomain output:
    min(p) = 0 at location (-0.000525 0 0.216)
    max(p) = 19.079317 at location (-0.00014395116 0.0014503614 0.0015)
    min(U) = (-7.9793305e-05 4.8558916e-05 0.15063277) at location (-0.00014395116 -0.0014503614 0.0075)
    max(U) = (0.0073977413 0.071175589 1.3378855) at location (-0.00010410186 -0.0011123239 0.0015)

Time = 0.0155

Courant Number mean: 0.24303311 max: 0.59913051
smoothSolver:  Solving for Ux, Initial residual = 0.001956033, Final residual = 7.3434974e-09, No Iterations 9
smoothSolver:  Solving for Uy, Initial residual = 0.001956385, Final residual = 2.8924624e-09, No Iterations 10
smoothSolver:  Solving for Uz, Initial residual = 0.0010872655, Final residual = 3.2326365e-09, No Iterations 10
GAMGPCG:  Solving for p, Initial residual = 0.00016779946, Final residual = 1.2209382e-06, No Iterations 113
GAMGPCG:  Solving for p, Initial residual = 1.0109057e-05, Final residual = 7.6717179e-07, No Iterations 1
time step continuity errors : sum local = 4.0380993e-09, global = -9.5766078e-11, cumulative = 3.5146179e-09
GAMGPCG:  Solving for p, Initial residual = 8.8049371e-05, Final residual = 8.8707404e-07, No Iterations 146
GAMGPCG:  Solving for p, Initial residual = 6.064395e-06, Final residual = 5.9662958e-07, No Iterations 1
time step continuity errors : sum local = 3.1522378e-09, global = 7.2707805e-11, cumulative = 3.5873257e-09
ExecutionTime = 85.63 s  ClockTime = 86 s

fieldMinMax minmaxdomain output:
    min(p) = 0 at location (-0.000525 0 0.216)
    max(p) = 19.036716 at location (-0.00014395116 0.0014503614 0.0015)
    min(U) = (-7.9766042e-05 -4.8555702e-05 0.15064163) at location (-0.00014395116 0.0014503614 0.0075)
    max(U) = (0.0073982929 0.071183096 1.3378808) at location (-0.00010410186 -0.0011123239 0.0015)

Time = 0.016

Courant Number mean: 0.24305181 max: 0.59916182
smoothSolver:  Solving for Ux, Initial residual = 0.0017832485, Final residual = 6.6343428e-09, No Iterations 9
smoothSolver:  Solving for Uy, Initial residual = 0.0017834876, Final residual = 9.3309868e-09, No Iterations 9
smoothSolver:  Solving for Uz, Initial residual = 0.00098684717, Final residual = 9.7929833e-09, No Iterations 9
GAMGPCG:  Solving for p, Initial residual = 0.00015322049, Final residual = 1.1208002e-06, No Iterations 90
GAMGPCG:  Solving for p, Initial residual = 9.1713201e-06, Final residual = 7.1312772e-07, No Iterations 1
time step continuity errors : sum local = 3.7470012e-09, global = 1.4558213e-11, cumulative = 3.6018839e-09
GAMGPCG:  Solving for p, Initial residual = 8.0460202e-05, Final residual = 7.5532394e-07, No Iterations 170
GAMGPCG:  Solving for p, Initial residual = 5.455826e-06, Final residual = 5.5506376e-07, No Iterations 1
time step continuity errors : sum local = 2.9264418e-09, global = 6.7444391e-11, cumulative = 3.6693283e-09
ExecutionTime = 88.44 s  ClockTime = 88 s

fieldMinMax minmaxdomain output:
    min(p) = 0 at location (-0.000525 0 0.216)
    max(p) = 18.998257 at location (0.0014503614 0.00014395116 0.0015)
    min(U) = (-7.9732888e-05 4.8567464e-05 0.15064641) at location (-0.00014395116 -0.0014503614 0.0075)
    max(U) = (0.0073987432 0.07118936 1.3378832) at location (-0.00010410186 -0.0011123239 0.0015)

Time = 0.0165

Courant Number mean: 0.2430689 max: 0.59918794
smoothSolver:  Solving for Ux, Initial residual = 0.001623889, Final residual = 6.0138651e-09, No Iterations 9
smoothSolver:  Solving for Uy, Initial residual = 0.0016239196, Final residual = 8.4547456e-09, No Iterations 9
smoothSolver:  Solving for Uz, Initial residual = 0.00089594043, Final residual = 8.8903541e-09, No Iterations 9
GAMGPCG:  Solving for p, Initial residual = 0.00014000664, Final residual = 1.2572637e-06, No Iterations 95
GAMGPCG:  Solving for p, Initial residual = 8.4151784e-06, Final residual = 6.3673773e-07, No Iterations 1
time step continuity errors : sum local = 3.3402301e-09, global = -6.497138e-11, cumulative = 3.6043569e-09
GAMGPCG:  Solving for p, Initial residual = 7.2897686e-05, Final residual = 8.4002029e-07, No Iterations 154
GAMGPCG:  Solving for p, Initial residual = 4.9929381e-06, Final residual = 5.253511e-07, No Iterations 1
time step continuity errors : sum local = 2.7644782e-09, global = -7.2998981e-11, cumulative = 3.5313579e-09
ExecutionTime = 90.94 s  ClockTime = 91 s

fieldMinMax minmaxdomain output:
    min(p) = 0 at location (-0.000525 0 0.216)
    max(p) = 18.96346 at location (0.0014503614 -0.00014395116 0.0015)
    min(U) = (-7.9697486e-05 -4.8592895e-05 0.15064826) at location (-0.00014395116 0.0014503614 0.0075)
    max(U) = (0.0073991111 0.07119453 1.3378908) at location (-0.00010410186 -0.0011123239 0.0015)

Time = 0.017

Courant Number mean: 0.24308452 max: 0.59920949
smoothSolver:  Solving for Ux, Initial residual = 0.0014708192, Final residual = 5.4507589e-09, No Iterations 9
smoothSolver:  Solving for Uy, Initial residual = 0.0014710107, Final residual = 7.6662284e-09, No Iterations 9
smoothSolver:  Solving for Uz, Initial residual = 0.00081348445, Final residual = 8.0729609e-09, No Iterations 9
GAMGPCG:  Solving for p, Initial residual = 0.0001268236, Final residual = 1.0607163e-06, No Iterations 102
GAMGPCG:  Solving for p, Initial residual = 7.5090229e-06, Final residual = 5.7582228e-07, No Iterations 1
time step continuity errors : sum local = 3.0162441e-09, global = 5.8107784e-11, cumulative = 3.5894657e-09
GAMGPCG:  Solving for p, Initial residual = 6.5859779e-05, Final residual = 9.9725944e-07, No Iterations 120
GAMGPCG:  Solving for p, Initial residual = 4.6898635e-06, Final residual = 6.8699965e-07, No Iterations 1
time step continuity errors : sum local = 3.6087805e-09, global = 8.1268467e-11, cumulative = 3.6707342e-09
ExecutionTime = 93.22 s  ClockTime = 93 s

fieldMinMax minmaxdomain output:
    min(p) = 0 at location (-0.000525 0 0.216)
    max(p) = 18.931965 at location (0.00014395116 -0.0014503614 0.0015)
    min(U) = (-7.9662521e-05 4.8628493e-05 0.15064828) at location (-0.00014395116 -0.0014503614 0.0075)
    max(U) = (0.0073994074 0.071198747 1.3379019) at location (-0.00010410186 -0.0011123239 0.0015)

Time = 0.0175

Courant Number mean: 0.2430988 max: 0.59922708
smoothSolver:  Solving for Ux, Initial residual = 0.0013277922, Final residual = 4.932897e-09, No Iterations 9
smoothSolver:  Solving for Uy, Initial residual = 0.0013281072, Final residual = 6.9666305e-09, No Iterations 9
smoothSolver:  Solving for Uz, Initial residual = 0.00073876462, Final residual = 7.3316179e-09, No Iterations 9
GAMGPCG:  Solving for p, Initial residual = 0.00011541911, Final residual = 1.090691e-06, No Iterations 129
GAMGPCG:  Solving for p, Initial residual = 6.7781398e-06, Final residual = 6.1290553e-07, No Iterations 1
time step continuity errors : sum local = 3.2062068e-09, global = 4.6009581e-11, cumulative = 3.7167438e-09
GAMGPCG:  Solving for p, Initial residual = 5.998881e-05, Final residual = 9.0361253e-07, No Iterations 138
GAMGPCG:  Solving for p, Initial residual = 4.1930012e-06, Final residual = 6.7771845e-07, No Iterations 1
time step continuity errors : sum local = 3.5543741e-09, global = -8.2330184e-11, cumulative = 3.6344136e-09
ExecutionTime = 95.79 s  ClockTime = 96 s

fieldMinMax minmaxdomain output:
    min(p) = 0 at location (-0.000525 0 0.216)
    max(p) = 18.9035 at location (-0.00014395116 0.0014503614 0.0015)
    min(U) = (-7.9631137e-05 -4.8671355e-05 0.1506472) at location (-0.00014395116 0.0014503614 0.0075)
    max(U) = (0.0073996497 0.071202162 1.3379148) at location (-0.00010410186 -0.0011123239 0.0015)

Time = 0.018

Courant Number mean: 0.24311185 max: 0.59924134
smoothSolver:  Solving for Ux, Initial residual = 0.0012088214, Final residual = 4.4813426e-09, No Iterations 9
smoothSolver:  Solving for Uy, Initial residual = 0.0012090296, Final residual = 6.3272478e-09, No Iterations 9
smoothSolver:  Solving for Uz, Initial residual = 0.00067110793, Final residual = 6.6589417e-09, No Iterations 9
GAMGPCG:  Solving for p, Initial residual = 0.00010545925, Final residual = 9.2317573e-07, No Iterations 105
GAMGPCG:  Solving for p, Initial residual = 6.0450547e-06, Final residual = 5.1735845e-07, No Iterations 1
time step continuity errors : sum local = 2.7030634e-09, global = -8.5792612e-11, cumulative = 3.548621e-09
GAMGPCG:  Solving for p, Initial residual = 5.452914e-05, Final residual = 8.7438513e-07, No Iterations 92
GAMGPCG:  Solving for p, Initial residual = 3.8516847e-06, Final residual = 6.2679444e-07, No Iterations 1
time step continuity errors : sum local = 3.282526e-09, global = 6.4253655e-11, cumulative = 3.6128746e-09
ExecutionTime = 98.03 s  ClockTime = 98 s

fieldMinMax minmaxdomain output:
    min(p) = 0 at location (-0.000525 0 0.216)
    max(p) = 18.877659 at location (0.00014395116 -0.0014503614 0.0015)
    min(U) = (-7.9601311e-05 4.8717278e-05 0.15064569) at location (-0.00014395116 -0.0014503614 0.0075)
    max(U) = (0.0073998443 0.071204906 1.3379284) at location (-0.00010410186 -0.0011123239 0.0015)

Time = 0.0185

Courant Number mean: 0.24312379 max: 0.59925283
smoothSolver:  Solving for Ux, Initial residual = 0.0011038589, Final residual = 4.0702097e-09, No Iterations 9
smoothSolver:  Solving for Uy, Initial residual = 0.0011040624, Final residual = 5.7449377e-09, No Iterations 9
smoothSolver:  Solving for Uz, Initial residual = 0.0006098156, Final residual = 6.0487368e-09, No Iterations 9
GAMGPCG:  Solving for p, Initial residual = 9.5292687e-05, Final residual = 9.2609675e-07, No Iterations 134
GAMGPCG:  Solving for p, Initial residual = 5.5193403e-06, Final residual = 5.9034589e-07, No Iterations 1
time step continuity errors : sum local = 3.0809834e-09, global = -6.2085837e-11, cumulative = 3.5507888e-09
GAMGPCG:  Solving for p, Initial residual = 4.9615023e-05, Final residual = 9.2690165e-07, No Iterations 121
GAMGPCG:  Solving for p, Initial residual = 3.5411596e-06, Final residual = 7.8050153e-07, No Iterations 1
time step continuity errors : sum local = 4.0820917e-09, global = -7.6554025e-11, cumulative = 3.4742348e-09
ExecutionTime = 101.15 s  ClockTime = 101 s

fieldMinMax minmaxdomain output:
    min(p) = 0 at location (-0.000525 0 0.216)
    max(p) = 18.854277 at location (0.0014503614 0.00014395116 0.0015)
    min(U) = (-7.9576613e-05 4.8764251e-05 0.1506441) at location (-0.00014395116 -0.0014503614 0.0075)
    max(U) = (0.0074000041 0.071207106 1.3379415) at location (-0.00010410186 -0.0011123239 0.0015)

Time = 0.019

Courant Number mean: 0.24313469 max: 0.59926204
smoothSolver:  Solving for Ux, Initial residual = 0.0010045223, Final residual = 3.6994581e-09, No Iterations 9
smoothSolver:  Solving for Uy, Initial residual = 0.0010046725, Final residual = 5.2329299e-09, No Iterations 9
smoothSolver:  Solving for Uz, Initial residual = 0.00055415835, Final residual = 5.4950537e-09, No Iterations 9
GAMGPCG:  Solving for p, Initial residual = 8.7019974e-05, Final residual = 9.0430437e-07, No Iterations 118
GAMGPCG:  Solving for p, Initial residual = 5.0353954e-06, Final residual = 5.7290505e-07, No Iterations 1
time step continuity errors : sum local = 2.9869142e-09, global = 7.4143191e-11, cumulative = 3.548378e-09
GAMGPCG:  Solving for p, Initial residual = 4.5181259e-05, Final residual = 9.2849729e-07, No Iterations 131
GAMGPCG:  Solving for p, Initial residual = 3.2986041e-06, Final residual = 7.3132155e-07, No Iterations 1
time step continuity errors : sum local = 3.8202688e-09, global = -7.0661591e-11, cumulative = 3.4777164e-09
ExecutionTime = 103.95 s  ClockTime = 104 s

fieldMinMax minmaxdomain output:
    min(p) = 0 at location (-0.000525 0 0.216)
    max(p) = 18.833076 at location (0.0014503614 -0.00014395116 0.0015)
    min(U) = (-7.9556595e-05 4.8809253e-05 0.15064271) at location (-0.00014395116 -0.0014503614 0.0075)
    max(U) = (0.007400135 0.071208866 1.3379535) at location (-0.00010410186 -0.0011123239 0.0015)

Time = 0.0195

Courant Number mean: 0.24314468 max: 0.59926944
smoothSolver:  Solving for Ux, Initial residual = 0.00091540897, Final residual = 3.3652268e-09, No Iterations 9
smoothSolver:  Solving for Uy, Initial residual = 0.0009157351, Final residual = 4.7708878e-09, No Iterations 9
smoothSolver:  Solving for Uz, Initial residual = 0.00050367526, Final residual = 4.9924835e-09, No Iterations 9
GAMGPCG:  Solving for p, Initial residual = 8.0127385e-05, Final residual = 9.8797352e-07, No Iterations 105
GAMGPCG:  Solving for p, Initial residual = 4.661245e-06, Final residual = 6.1815242e-07, No Iterations 1
time step continuity errors : sum local = 3.2198276e-09, global = -6.7562823e-11, cumulative = 3.4101535e-09
GAMGPCG:  Solving for p, Initial residual = 4.0985442e-05, Final residual = 9.5131645e-07, No Iterations 141
GAMGPCG:  Solving for p, Initial residual = 3.0516672e-06, Final residual = 9.5961899e-07, No Iterations 1
time step continuity errors : sum local = 5.0073443e-09, global = 7.361838e-11, cumulative = 3.4837719e-09
ExecutionTime = 106.65 s  ClockTime = 107 s

fieldMinMax minmaxdomain output:
    min(p) = 0 at location (-0.000525 0 0.216)
    max(p) = 18.813867 at location (-0.00014395116 0.0014503614 0.0015)
    min(U) = (-7.9540948e-05 4.8851167e-05 0.15064166) at location (-0.00014395116 -0.0014503614 0.0075)
    max(U) = (0.0074002428 0.071210278 1.3379642) at location (-0.00010410186 -0.0011123239 0.0015)

Time = 0.02

Courant Number mean: 0.24315381 max: 0.59927539
smoothSolver:  Solving for Ux, Initial residual = 0.00083968003, Final residual = 3.0703654e-09, No Iterations 9
smoothSolver:  Solving for Uy, Initial residual = 0.00083981079, Final residual = 4.3415637e-09, No Iterations 9
smoothSolver:  Solving for Uz, Initial residual = 0.00045784495, Final residual = 4.5362418e-09, No Iterations 9
GAMGPCG:  Solving for p, Initial residual = 7.3480066e-05, Final residual = 9.5741673e-07, No Iterations 136
GAMGPCG:  Solving for p, Initial residual = 4.2532239e-06, Final residual = 7.1913042e-07, No Iterations 1
time step continuity errors : sum local = 3.7426095e-09, global = -7.1809727e-11, cumulative = 3.4119622e-09
GAMGPCG:  Solving for p, Initial residual = 3.7321111e-05, Final residual = 9.2814246e-07, No Iterations 112
GAMGPCG:  Solving for p, Initial residual = 2.7879419e-06, Final residual = 8.8919084e-07, No Iterations 1
time step continuity errors : sum local = 4.6351822e-09, global = 8.0855305e-11, cumulative = 3.4928175e-09
ExecutionTime = 109.05 s  ClockTime = 109 s

fieldMinMax minmaxdomain output:
    min(p) = 0 at location (-0.000525 0 0.216)
    max(p) = 18.79641 at location (0.00014395116 -0.0014503614 0.0015)
    min(U) = (-7.9528782e-05 4.8888704e-05 0.15064101) at location (-0.00014395116 -0.0014503614 0.0075)
    max(U) = (0.007400333 0.071211419 1.3379732) at location (-0.00010410186 -0.0011123239 0.0015)

Time = 0.0205

Courant Number mean: 0.24316215 max: 0.59928021
smoothSolver:  Solving for Ux, Initial residual = 0.00076931795, Final residual = 2.794312e-09, No Iterations 9
smoothSolver:  Solving for Uy, Initial residual = 0.0007694693, Final residual = 3.9531472e-09, No Iterations 9
smoothSolver:  Solving for Uz, Initial residual = 0.00041620763, Final residual = 4.1220222e-09, No Iterations 9
GAMGPCG:  Solving for p, Initial residual = 6.7188641e-05, Final residual = 9.6023159e-07, No Iterations 178
GAMGPCG:  Solving for p, Initial residual = 4.0054413e-06, Final residual = 6.4058368e-07, No Iterations 1
time step continuity errors : sum local = 3.3312663e-09, global = 8.6789342e-11, cumulative = 3.5796068e-09
GAMGPCG:  Solving for p, Initial residual = 3.4154098e-05, Final residual = 8.1557475e-07, No Iterations 148
GAMGPCG:  Solving for p, Initial residual = 2.5347531e-06, Final residual = 6.396756e-07, No Iterations 1
time step continuity errors : sum local = 3.3314594e-09, global = 6.0696917e-11, cumulative = 3.6403038e-09
ExecutionTime = 112.79 s  ClockTime = 113 s

fieldMinMax minmaxdomain output:
    min(p) = 0 at location (-0.000525 0 0.216)
    max(p) = 18.780577 at location (0.00014395116 -0.0014503614 0.0015)
    min(U) = (-7.9520204e-05 4.8920978e-05 0.15064072) at location (-0.00014395116 -0.0014503614 0.0075)
    max(U) = (0.0074004092 0.071212348 1.3379807) at location (-0.00010410186 -0.0011123239 0.0015)

Time = 0.021

Courant Number mean: 0.24316978 max: 0.59928414
smoothSolver:  Solving for Ux, Initial residual = 0.00070137557, Final residual = 9.5788643e-09, No Iterations 8
smoothSolver:  Solving for Uy, Initial residual = 0.00070138559, Final residual = 3.6083321e-09, No Iterations 9
smoothSolver:  Solving for Uz, Initial residual = 0.00037837082, Final residual = 3.7456071e-09, No Iterations 9
GAMGPCG:  Solving for p, Initial residual = 6.1382951e-05, Final residual = 8.2260087e-07, No Iterations 153
GAMGPCG:  Solving for p, Initial residual = 3.6122254e-06, Final residual = 4.4153748e-07, No Iterations 1
time step continuity errors : sum local = 2.2945272e-09, global = -5.8954472e-11, cumulative = 3.5813493e-09
GAMGPCG:  Solving for p, Initial residual = 3.1062389e-05, Final residual = 9.3599014e-07, No Iterations 112
GAMGPCG:  Solving for p, Initial residual = 2.4512794e-06, Final residual = 9.3808784e-07, No Iterations 1
time step continuity errors : sum local = 4.8815181e-09, global = 6.611823e-11, cumulative = 3.6474675e-09
ExecutionTime = 115.42 s  ClockTime = 115 s

fieldMinMax minmaxdomain output:
    min(p) = 0 at location (-0.000525 0 0.216)
    max(p) = 18.766227 at location (0.00014395116 -0.0014503614 0.0015)
    min(U) = (-7.9514422e-05 4.8948286e-05 0.15064076) at location (-0.00014395116 -0.0014503614 0.0075)
    max(U) = (0.0074004743 0.071213113 1.3379866) at location (-0.00010410186 -0.0011123239 0.0015)

Time = 0.0215

Courant Number mean: 0.24317676 max: 0.59928739
smoothSolver:  Solving for Ux, Initial residual = 0.00063742266, Final residual = 8.7262503e-09, No Iterations 8
smoothSolver:  Solving for Uy, Initial residual = 0.00063748896, Final residual = 3.2937297e-09, No Iterations 9
smoothSolver:  Solving for Uz, Initial residual = 0.00034403406, Final residual = 3.403846e-09, No Iterations 9
GAMGPCG:  Solving for p, Initial residual = 5.5722209e-05, Final residual = 9.9773953e-07, No Iterations 149
GAMGPCG:  Solving for p, Initial residual = 3.4586041e-06, Final residual = 6.1846679e-07, No Iterations 1
time step continuity errors : sum local = 3.2119055e-09, global = -5.0189117e-11, cumulative = 3.5972784e-09
GAMGPCG:  Solving for p, Initial residual = 2.8263495e-05, Final residual = 9.4711425e-07, No Iterations 90
GAMGPCG:  Solving for p, Initial residual = 2.3395931e-06, Final residual = 9.4496218e-07, No Iterations 2
time step continuity errors : sum local = 4.9135479e-09, global = 4.5048654e-11, cumulative = 3.6423271e-09
ExecutionTime = 118.29 s  ClockTime = 118 s

fieldMinMax minmaxdomain output:
    min(p) = 0 at location (-0.000525 0 0.216)
    max(p) = 18.753199 at location (0.00014395116 -0.0014503614 0.0015)
    min(U) = (-7.9510672e-05 4.8970867e-05 0.15064107) at location (-0.00014395116 -0.0014503614 0.0075)
    max(U) = (0.0074005299 0.071213753 1.3379913) at location (-0.00010410186 -0.0011123239 0.0015)

Time = 0.022

Courant Number mean: 0.24318316 max: 0.59929011
smoothSolver:  Solving for Ux, Initial residual = 0.00058631049, Final residual = 7.9699432e-09, No Iterations 8
smoothSolver:  Solving for Uy, Initial residual = 0.00058704774, Final residual = 3.0078167e-09, No Iterations 9
smoothSolver:  Solving for Uz, Initial residual = 0.00031282308, Final residual = 3.0935034e-09, No Iterations 9
GAMGPCG:  Solving for p, Initial residual = 5.1236789e-05, Final residual = 9.7837422e-07, No Iterations 112
GAMGPCG:  Solving for p, Initial residual = 3.2487019e-06, Final residual = 8.3947284e-07, No Iterations 1
time step continuity errors : sum local = 4.3570881e-09, global = 6.4734837e-11, cumulative = 3.7070619e-09
GAMGPCG:  Solving for p, Initial residual = 2.6136846e-05, Final residual = 9.2149889e-07, No Iterations 107
GAMGPCG:  Solving for p, Initial residual = 2.2018664e-06, Final residual = 9.0046487e-07, No Iterations 1
time step continuity errors : sum local = 4.678915e-09, global = 2.7317817e-11, cumulative = 3.7343797e-09
ExecutionTime = 120.93 s  ClockTime = 121 s

fieldMinMax minmaxdomain output:
    min(p) = 0 at location (-0.000525 0 0.216)
    max(p) = 18.741373 at location (-0.00014395116 -0.0014503614 0.0015)
    min(U) = (-7.950837e-05 4.8988722e-05 0.15064155) at location (-0.00014395116 -0.0014503614 0.0075)
    max(U) = (0.0074005788 0.071214295 1.3379948) at location (-0.00010410186 -0.0011123239 0.0015)

Time = 0.0225

Courant Number mean: 0.243189 max: 0.5992924
smoothSolver:  Solving for Ux, Initial residual = 0.00053739148, Final residual = 7.2900444e-09, No Iterations 8
smoothSolver:  Solving for Uy, Initial residual = 0.00053766442, Final residual = 9.9099251e-09, No Iterations 8
smoothSolver:  Solving for Uz, Initial residual = 0.0002844335, Final residual = 9.4303487e-09, No Iterations 8
GAMGPCG:  Solving for p, Initial residual = 4.6648499e-05, Final residual = 9.2959282e-07, No Iterations 123
GAMGPCG:  Solving for p, Initial residual = 2.9436616e-06, Final residual = 8.7939259e-07, No Iterations 1
time step continuity errors : sum local = 4.5618355e-09, global = -5.0530991e-11, cumulative = 3.6838487e-09
GAMGPCG:  Solving for p, Initial residual = 2.3607091e-05, Final residual = 9.4318377e-07, No Iterations 86
GAMGPCG:  Solving for p, Initial residual = 2.1055985e-06, Final residual = 7.2771814e-07, No Iterations 2
time step continuity errors : sum local = 3.7789027e-09, global = -1.1232522e-12, cumulative = 3.6827255e-09
ExecutionTime = 123.29 s  ClockTime = 123 s

fieldMinMax minmaxdomain output:
    min(p) = 0 at location (-0.000525 0 0.216)
    max(p) = 18.730628 at location (-0.00014395116 -0.0014503614 0.0015)
    min(U) = (-7.9507019e-05 4.9002808e-05 0.15064216) at location (-0.00014395116 -0.0014503614 0.0075)
    max(U) = (0.0074006209 0.07121476 1.3379975) at location (-0.00010410186 -0.0011123239 0.0015)

Time = 0.023

Courant Number mean: 0.24319435 max: 0.59929438
smoothSolver:  Solving for Ux, Initial residual = 0.00049141498, Final residual = 6.6525055e-09, No Iterations 8
smoothSolver:  Solving for Uy, Initial residual = 0.00049192586, Final residual = 9.0389289e-09, No Iterations 8
smoothSolver:  Solving for Uz, Initial residual = 0.00025865873, Final residual = 8.5718919e-09, No Iterations 8
GAMGPCG:  Solving for p, Initial residual = 4.3054242e-05, Final residual = 9.4281456e-07, No Iterations 100
GAMGPCG:  Solving for p, Initial residual = 2.8072789e-06, Final residual = 7.509398e-07, No Iterations 1
time step continuity errors : sum local = 3.8935752e-09, global = -6.5700721e-11, cumulative = 3.6170247e-09
GAMGPCG:  Solving for p, Initial residual = 2.1699979e-05, Final residual = 9.9845204e-07, No Iterations 95
GAMGPCG:  Solving for p, Initial residual = 2.036088e-06, Final residual = 6.8225623e-07, No Iterations 2
time step continuity errors : sum local = 3.5407744e-09, global = -7.3196735e-12, cumulative = 3.6097051e-09
ExecutionTime = 125.37 s  ClockTime = 125 s

fieldMinMax minmaxdomain output:
    min(p) = 0 at location (-0.000525 0 0.216)
    max(p) = 18.720874 at location (0.0014503614 -0.00014395116 0.0015)
    min(U) = (-7.9507659e-05 4.9013718e-05 0.15064282) at location (-0.00014395116 -0.0014503614 0.0075)
    max(U) = (0.0074006567 0.071215161 1.3379996) at location (-0.00010410186 -0.0011123239 0.0015)

Time = 0.0235

Courant Number mean: 0.24319923 max: 0.59929608
smoothSolver:  Solving for Ux, Initial residual = 0.00044831466, Final residual = 6.064381e-09, No Iterations 8
smoothSolver:  Solving for Uy, Initial residual = 0.00044903841, Final residual = 8.2630821e-09, No Iterations 8
smoothSolver:  Solving for Uz, Initial residual = 0.00023524267, Final residual = 7.7911735e-09, No Iterations 8
GAMGPCG:  Solving for p, Initial residual = 3.9432142e-05, Final residual = 9.4934577e-07, No Iterations 108
GAMGPCG:  Solving for p, Initial residual = 2.6946233e-06, Final residual = 9.9065405e-07, No Iterations 1
time step continuity errors : sum local = 5.1341767e-09, global = 7.2650809e-11, cumulative = 3.6823559e-09
GAMGPCG:  Solving for p, Initial residual = 1.9954943e-05, Final residual = 9.3370628e-07, No Iterations 115
GAMGPCG:  Solving for p, Initial residual = 1.9415571e-06, Final residual = 7.2481056e-07, No Iterations 2
time step continuity errors : sum local = 3.7596349e-09, global = -3.3589108e-11, cumulative = 3.6487668e-09
ExecutionTime = 127.85 s  ClockTime = 128 s

fieldMinMax minmaxdomain output:
    min(p) = 0 at location (-0.000525 0 0.216)
    max(p) = 18.712017 at location (-0.00014395116 -0.0014503614 0.0015)
    min(U) = (-7.9507274e-05 4.9021973e-05 0.15064348) at location (-0.00014395116 -0.0014503614 0.0075)
    max(U) = (0.0074006885 0.071215513 1.3380011) at location (-0.00010410186 -0.0011123239 0.0015)

Time = 0.024

Courant Number mean: 0.24320371 max: 0.59929757
smoothSolver:  Solving for Ux, Initial residual = 0.00041241077, Final residual = 5.5507201e-09, No Iterations 8
smoothSolver:  Solving for Uy, Initial residual = 0.00041280612, Final residual = 7.5600551e-09, No Iterations 8
smoothSolver:  Solving for Uz, Initial residual = 0.00021392406, Final residual = 7.08191e-09, No Iterations 8
GAMGPCG:  Solving for p, Initial residual = 3.6557278e-05, Final residual = 8.6200424e-07, No Iterations 108
GAMGPCG:  Solving for p, Initial residual = 2.4610986e-06, Final residual = 6.9404696e-07, No Iterations 1
time step continuity errors : sum local = 3.5955078e-09, global = 5.7080179e-11, cumulative = 3.7058469e-09
GAMGPCG:  Solving for p, Initial residual = 1.8178941e-05, Final residual = 9.3969672e-07, No Iterations 94
GAMGPCG:  Solving for p, Initial residual = 1.7817877e-06, Final residual = 9.3360297e-07, No Iterations 2
time step continuity errors : sum local = 4.840316e-09, global = 3.439366e-11, cumulative = 3.7402406e-09
ExecutionTime = 130.03 s  ClockTime = 130 s

fieldMinMax minmaxdomain output:
    min(p) = 0 at location (-0.000525 0 0.216)
    max(p) = 18.703959 at location (-0.00014395116 0.0014503614 0.0015)
    min(U) = (-7.9507478e-05 4.9027951e-05 0.15064409) at location (-0.00014395116 -0.0014503614 0.0075)
    max(U) = (0.0074007163 0.07121582 1.3380022) at location (-0.00010410186 -0.0011123239 0.0015)

Time = 0.0245

Courant Number mean: 0.2432078 max: 0.59929887
smoothSolver:  Solving for Ux, Initial residual = 0.00037722971, Final residual = 5.0640885e-09, No Iterations 8
smoothSolver:  Solving for Uy, Initial residual = 0.00037735709, Final residual = 6.8793591e-09, No Iterations 8
smoothSolver:  Solving for Uz, Initial residual = 0.00019453018, Final residual = 6.4374989e-09, No Iterations 8
GAMGPCG:  Solving for p, Initial residual = 3.3363752e-05, Final residual = 8.9472308e-07, No Iterations 114
GAMGPCG:  Solving for p, Initial residual = 2.2555804e-06, Final residual = 9.5246362e-07, No Iterations 1
time step continuity errors : sum local = 4.9323915e-09, global = 7.1571817e-11, cumulative = 3.8118124e-09
GAMGPCG:  Solving for p, Initial residual = 1.6599531e-05, Final residual = 9.8058112e-07, No Iterations 89
GAMGPCG:  Solving for p, Initial residual = 1.7048252e-06, Final residual = 7.1256456e-07, No Iterations 2
time step continuity errors : sum local = 3.692701e-09, global = -1.8779512e-11, cumulative = 3.7930329e-09
ExecutionTime = 132.09 s  ClockTime = 132 s

fieldMinMax minmaxdomain output:
    min(p) = 0 at location (-0.000525 0 0.216)
    max(p) = 18.696649 at location (-0.00014395116 0.0014503614 0.0015)
    min(U) = (-7.9507865e-05 4.9032408e-05 0.15064467) at location (-0.00014395116 -0.0014503614 0.0075)
    max(U) = (0.0074007402 0.071216091 1.3380031) at location (-0.00010410186 -0.0011123239 0.0015)

Time = 0.025

Courant Number mean: 0.24321154 max: 0.59930001
smoothSolver:  Solving for Ux, Initial residual = 0.00034404706, Final residual = 4.6241366e-09, No Iterations 8
smoothSolver:  Solving for Uy, Initial residual = 0.00034428077, Final residual = 6.2927748e-09, No Iterations 8
smoothSolver:  Solving for Uz, Initial residual = 0.00017692302, Final residual = 5.8513486e-09, No Iterations 8
GAMGPCG:  Solving for p, Initial residual = 3.0731245e-05, Final residual = 9.6850282e-07, No Iterations 99
GAMGPCG:  Solving for p, Initial residual = 2.1995358e-06, Final residual = 9.0687045e-07, No Iterations 2
time step continuity errors : sum local = 4.694689e-09, global = 3.961633e-11, cumulative = 3.8326492e-09
GAMGPCG:  Solving for p, Initial residual = 1.5513214e-05, Final residual = 9.4067634e-07, No Iterations 85
GAMGPCG:  Solving for p, Initial residual = 1.6993706e-06, Final residual = 8.8698803e-07, No Iterations 2
time step continuity errors : sum local = 4.5947621e-09, global = -3.4248e-11, cumulative = 3.7984012e-09
ExecutionTime = 134.65 s  ClockTime = 135 s

fieldMinMax minmaxdomain output:
    min(p) = 0 at location (-0.000525 0 0.216)
    max(p) = 18.690009 at location (0.0014503614 -0.00014395116 0.0015)
    min(U) = (-7.9508104e-05 4.9035931e-05 0.15064517) at location (-0.00014395116 -0.0014503614 0.0075)
    max(U) = (0.0074007603 0.071216329 1.3380039) at location (-0.00010410186 -0.0011123239 0.0015)

Time = 0.0255

Courant Number mean: 0.24321497 max: 0.59930102
smoothSolver:  Solving for Ux, Initial residual = 0.00031554206, Final residual = 4.2240853e-09, No Iterations 8
smoothSolver:  Solving for Uy, Initial residual = 0.00031635248, Final residual = 5.7626339e-09, No Iterations 8
smoothSolver:  Solving for Uz, Initial residual = 0.00016090343, Final residual = 5.3184377e-09, No Iterations 8
GAMGPCG:  Solving for p, Initial residual = 2.842865e-05, Final residual = 9.7372911e-07, No Iterations 102
GAMGPCG:  Solving for p, Initial residual = 2.1400666e-06, Final residual = 8.127207e-07, No Iterations 2
time step continuity errors : sum local = 4.205988e-09, global = -4.07837e-11, cumulative = 3.7576175e-09
GAMGPCG:  Solving for p, Initial residual = 1.4482503e-05, Final residual = 8.6294332e-07, No Iterations 92
GAMGPCG:  Solving for p, Initial residual = 1.6034806e-06, Final residual = 8.2943191e-07, No Iterations 2
time step continuity errors : sum local = 4.2950328e-09, global = 6.2716033e-12, cumulative = 3.7638891e-09
ExecutionTime = 136.79 s  ClockTime = 137 s

fieldMinMax minmaxdomain output:
    min(p) = 0 at location (-0.000525 0 0.216)
    max(p) = 18.68398 at location (-0.0014503614 -0.00014395116 0.0015)
    min(U) = (-7.9508275e-05 4.9038627e-05 0.1506456) at location (-0.00014395116 -0.0014503614 0.0075)
    max(U) = (0.0074007781 0.071216537 1.3380045) at location (-0.00010410186 -0.0011123239 0.0015)

Time = 0.026

Courant Number mean: 0.2432181 max: 0.59930189
smoothSolver:  Solving for Ux, Initial residual = 0.00028876867, Final residual = 3.8605303e-09, No Iterations 8
smoothSolver:  Solving for Uy, Initial residual = 0.00028924559, Final residual = 5.2642856e-09, No Iterations 8
smoothSolver:  Solving for Uz, Initial residual = 0.00014632148, Final residual = 4.8343501e-09, No Iterations 8
GAMGPCG:  Solving for p, Initial residual = 2.5913704e-05, Final residual = 9.2511558e-07, No Iterations 78
GAMGPCG:  Solving for p, Initial residual = 2.0014004e-06, Final residual = 8.2730787e-07, No Iterations 3
time step continuity errors : sum local = 4.2802699e-09, global = -7.5556357e-11, cumulative = 3.6883328e-09
GAMGPCG:  Solving for p, Initial residual = 1.2756241e-05, Final residual = 9.273946e-07, No Iterations 83
GAMGPCG:  Solving for p, Initial residual = 1.4897872e-06, Final residual = 8.9839675e-07, No Iterations 2
time step continuity errors : sum local = 4.650595e-09, global = -2.2336973e-11, cumulative = 3.6659958e-09
ExecutionTime = 138.63 s  ClockTime = 139 s

fieldMinMax minmaxdomain output:
    min(p) = 0 at location (-0.000525 0 0.216)
    max(p) = 18.67849 at location (-0.00014395116 -0.0014503614 0.0015)
    min(U) = (-7.9508266e-05 4.9040692e-05 0.15064595) at location (-0.00014395116 -0.0014503614 0.0075)
    max(U) = (0.0074007938 0.07121672 1.3380051) at location (-0.00010410186 -0.0011123239 0.0015)

Time = 0.0265

Courant Number mean: 0.24322097 max: 0.59930266
smoothSolver:  Solving for Ux, Initial residual = 0.00026377519, Final residual = 3.5222817e-09, No Iterations 8
smoothSolver:  Solving for Uy, Initial residual = 0.00026422881, Final residual = 4.7981218e-09, No Iterations 8
smoothSolver:  Solving for Uz, Initial residual = 0.00013306908, Final residual = 4.3943025e-09, No Iterations 8
GAMGPCG:  Solving for p, Initial residual = 2.3827289e-05, Final residual = 9.1064902e-07, No Iterations 78
GAMGPCG:  Solving for p, Initial residual = 1.8595953e-06, Final residual = 8.4429252e-07, No Iterations 2
time step continuity errors : sum local = 4.3670166e-09, global = -1.8427853e-12, cumulative = 3.664153e-09
GAMGPCG:  Solving for p, Initial residual = 1.1890202e-05, Final residual = 8.6923385e-07, No Iterations 80
GAMGPCG:  Solving for p, Initial residual = 1.412551e-06, Final residual = 9.379178e-07, No Iterations 1
time step continuity errors : sum local = 4.8536926e-09, global = -4.0871426e-11, cumulative = 3.6232816e-09
ExecutionTime = 140.08 s  ClockTime = 140 s

fieldMinMax minmaxdomain output:
    min(p) = 0 at location (-0.000525 0 0.216)
    max(p) = 18.673515 at location (0.0014503614 -0.00014395116 0.0015)
    min(U) = (-7.9508224e-05 4.9042593e-05 0.15064623) at location (-0.00014395116 -0.0014503614 0.0075)
    max(U) = (0.0074008059 0.071216878 1.3380057) at location (-0.00010410186 -0.0011123239 0.0015)

Time = 0.027

Courant Number mean: 0.24322359 max: 0.59930332
smoothSolver:  Solving for Ux, Initial residual = 0.00024092584, Final residual = 3.2201479e-09, No Iterations 8
smoothSolver:  Solving for Uy, Initial residual = 0.00024138054, Final residual = 4.3925925e-09, No Iterations 8
smoothSolver:  Solving for Uz, Initial residual = 0.00012102414, Final residual = 3.9939576e-09, No Iterations 8
GAMGPCG:  Solving for p, Initial residual = 2.189817e-05, Final residual = 8.3827515e-07, No Iterations 87
GAMGPCG:  Solving for p, Initial residual = 1.7934928e-06, Final residual = 9.0667031e-07, No Iterations 1
time step continuity errors : sum local = 4.6885527e-09, global = 5.4919502e-11, cumulative = 3.6782011e-09
GAMGPCG:  Solving for p, Initial residual = 1.0835803e-05, Final residual = 9.1307542e-07, No Iterations 72
GAMGPCG:  Solving for p, Initial residual = 1.4344894e-06, Final residual = 8.6452391e-07, No Iterations 2
time step continuity errors : sum local = 4.4726328e-09, global = 4.4340958e-12, cumulative = 3.6826352e-09
ExecutionTime = 141.89 s  ClockTime = 142 s

fieldMinMax minmaxdomain output:
    min(p) = 0 at location (-0.000525 0 0.216)
    max(p) = 18.668984 at location (0.0014503614 -0.00014395116 0.0015)
    min(U) = (-7.9507725e-05 4.9043881e-05 0.15064645) at location (-0.00014395116 -0.0014503614 0.0075)
    max(U) = (0.0074008175 0.071217015 1.3380062) at location (-0.00010410186 -0.0011123239 0.0015)

Time = 0.0275

Courant Number mean: 0.24322598 max: 0.5993039
smoothSolver:  Solving for Ux, Initial residual = 0.00022132784, Final residual = 2.9472086e-09, No Iterations 8
smoothSolver:  Solving for Uy, Initial residual = 0.00022208537, Final residual = 4.0362025e-09, No Iterations 8
smoothSolver:  Solving for Uz, Initial residual = 0.00011006147, Final residual = 3.6300552e-09, No Iterations 8
GAMGPCG:  Solving for p, Initial residual = 2.0410964e-05, Final residual = 9.5728695e-07, No Iterations 82
GAMGPCG:  Solving for p, Initial residual = 1.8302127e-06, Final residual = 9.7685709e-07, No Iterations 4
[...]
smoothSolver:  Solving for Uz, Initial residual = 6.2422182e-09, Final residual = 6.2422182e-09, No Iterations 0
GAMGPCG:  Solving for p, Initial residual = 2.8908744e-06, Final residual = 6.9417695e-07, No Iterations 1
GAMGPCG:  Solving for p, Initial residual = 1.1766275e-06, Final residual = 1.3105351e-07, No Iterations 1
time step continuity errors : sum local = 6.7601746e-10, global = -4.2414478e-13, cumulative = 4.88025e-09
GAMGPCG:  Solving for p, Initial residual = 1.3008226e-06, Final residual = 2.4377013e-07, No Iterations 1
GAMGPCG:  Solving for p, Initial residual = 4.1682391e-07, Final residual = 4.1682391e-07, No Iterations 0
time step continuity errors : sum local = 2.1501119e-09, global = 3.0007877e-11, cumulative = 4.9102579e-09
ExecutionTime = 262.94 s  ClockTime = 263 s

fieldMinMax minmaxdomain output:
    min(p) = 0 at location (-0.000525 0 0.216)
    max(p) = 18.624216 at location (-0.00014395116 0.0014503614 0.0015)
    min(U) = (-7.9503463e-05 4.9058259e-05 0.15064741) at location (-0.00014395116 -0.0014503614 0.0075)
    max(U) = (0.0074008846 0.071217846 1.338011) at location (-0.00010410186 -0.0011123239 0.0015)

Time = 0.194

Courant Number mean: 0.24325134 max: 0.59930739
smoothSolver:  Solving for Ux, Initial residual = 1.1548545e-06, Final residual = 3.2771117e-09, No Iterations 4
smoothSolver:  Solving for Uy, Initial residual = 1.9572089e-06, Final residual = 8.2767706e-09, No Iterations 4
smoothSolver:  Solving for Uz, Initial residual = 2.5791447e-09, Final residual = 2.5791447e-09, No Iterations 0
GAMGPCG:  Solving for p, Initial residual = 8.1532709e-07, Final residual = 8.1532709e-07, No Iterations 0
GAMGPCG:  Solving for p, Initial residual = 8.1532709e-07, Final residual = 8.1532709e-07, No Iterations 0
time step continuity errors : sum local = 4.2057191e-09, global = 6.0370359e-11, cumulative = 4.9706283e-09
GAMGPCG:  Solving for p, Initial residual = 8.2629255e-07, Final residual = 8.2629255e-07, No Iterations 0
GAMGPCG:  Solving for p, Initial residual = 8.2629255e-07, Final residual = 8.2629255e-07, No Iterations 0
time step continuity errors : sum local = 4.2622825e-09, global = 7.278441e-11, cumulative = 5.0434127e-09
ExecutionTime = 263.07 s  ClockTime = 263 s

fieldMinMax minmaxdomain output:
    min(p) = 0 at location (-0.000525 0 0.216)
    max(p) = 18.624216 at location (-0.00014395116 0.0014503614 0.0015)
    min(U) = (-7.9503463e-05 4.9058258e-05 0.15064741) at location (-0.00014395116 -0.0014503614 0.0075)
    max(U) = (0.0074008846 0.071217846 1.338011) at location (-0.00010410186 -0.0011123239 0.0015)

Time = 0.1945

Courant Number mean: 0.24325134 max: 0.59930739
smoothSolver:  Solving for Ux, Initial residual = 9.3086283e-07, Final residual = 2.8797224e-09, No Iterations 4
smoothSolver:  Solving for Uy, Initial residual = 1.6849752e-06, Final residual = 7.2243027e-09, No Iterations 4
smoothSolver:  Solving for Uz, Initial residual = 4.2057722e-09, Final residual = 4.2057722e-09, No Iterations 0
GAMGPCG:  Solving for p, Initial residual = 1.4130975e-06, Final residual = 5.2596231e-07, No Iterations 1
GAMGPCG:  Solving for p, Initial residual = 5.8956905e-07, Final residual = 5.8956905e-07, No Iterations 0
time step continuity errors : sum local = 3.0411889e-09, global = 3.1211127e-11, cumulative = 5.0746238e-09
GAMGPCG:  Solving for p, Initial residual = 1.3483214e-06, Final residual = 3.5307218e-07, No Iterations 1
GAMGPCG:  Solving for p, Initial residual = 5.2178731e-07, Final residual = 5.2178731e-07, No Iterations 0
time step continuity errors : sum local = 2.6915472e-09, global = 4.0106356e-11, cumulative = 5.1147302e-09
ExecutionTime = 263.22 s  ClockTime = 263 s

fieldMinMax minmaxdomain output:
    min(p) = 0 at location (-0.000525 0 0.216)
    max(p) = 18.624216 at location (-0.00014395116 0.0014503614 0.0015)
    min(U) = (-7.9503463e-05 4.9058259e-05 0.15064741) at location (-0.00014395116 -0.0014503614 0.0075)
    max(U) = (0.0074008846 0.071217846 1.338011) at location (-0.00010410186 -0.0011123239 0.0015)

Time = 0.195

Courant Number mean: 0.24325134 max: 0.59930739
smoothSolver:  Solving for Ux, Initial residual = 1.7529889e-06, Final residual = 5.4251742e-09, No Iterations 4
smoothSolver:  Solving for Uy, Initial residual = 3.0532673e-06, Final residual = 3.8247814e-09, No Iterations 5
smoothSolver:  Solving for Uz, Initial residual = 3.4248611e-09, Final residual = 3.4248611e-09, No Iterations 0
GAMGPCG:  Solving for p, Initial residual = 1.7140939e-06, Final residual = 4.5424382e-07, No Iterations 1
GAMGPCG:  Solving for p, Initial residual = 6.5163612e-07, Final residual = 6.5163612e-07, No Iterations 0
time step continuity errors : sum local = 3.3613515e-09, global = 5.0434066e-11, cumulative = 5.1651642e-09
GAMGPCG:  Solving for p, Initial residual = 1.5442266e-06, Final residual = 3.7064839e-07, No Iterations 1
GAMGPCG:  Solving for p, Initial residual = 6.225689e-07, Final residual = 6.225689e-07, No Iterations 0
time step continuity errors : sum local = 3.2114109e-09, global = 2.6246374e-11, cumulative = 5.1914106e-09
ExecutionTime = 263.46 s  ClockTime = 264 s

fieldMinMax minmaxdomain output:
    min(p) = 0 at location (-0.000525 0 0.216)
    max(p) = 18.624216 at location (-0.00014395116 0.0014503614 0.0015)
    min(U) = (-7.9503463e-05 4.9058259e-05 0.15064741) at location (-0.00014395116 -0.0014503614 0.0075)
    max(U) = (0.0074008846 0.071217846 1.338011) at location (-0.00010410186 -0.0011123239 0.0015)

Time = 0.1955

Courant Number mean: 0.24325134 max: 0.59930739
smoothSolver:  Solving for Ux, Initial residual = 1.5465012e-06, Final residual = 3.8163711e-09, No Iterations 4
smoothSolver:  Solving for Uy, Initial residual = 2.1514186e-06, Final residual = 8.1655471e-09, No Iterations 4
smoothSolver:  Solving for Uz, Initial residual = 3.148547e-09, Final residual = 3.148547e-09, No Iterations 0
GAMGPCG:  Solving for p, Initial residual = 1.9032808e-06, Final residual = 3.4962144e-07, No Iterations 1
GAMGPCG:  Solving for p, Initial residual = 6.3142672e-07, Final residual = 6.3142672e-07, No Iterations 0
time step continuity errors : sum local = 3.2571054e-09, global = 1.6675455e-11, cumulative = 5.208086e-09
GAMGPCG:  Solving for p, Initial residual = 1.609745e-06, Final residual = 1.5126638e-07, No Iterations 1
GAMGPCG:  Solving for p, Initial residual = 3.9097555e-07, Final residual = 3.9097555e-07, No Iterations 0
time step continuity errors : sum local = 2.0167775e-09, global = 5.7172679e-12, cumulative = 5.2138033e-09
ExecutionTime = 263.66 s  ClockTime = 264 s

fieldMinMax minmaxdomain output:
    min(p) = 0 at location (-0.000525 0 0.216)
    max(p) = 18.624216 at location (0.00014395116 0.0014503614 0.0015)
    min(U) = (-7.9503462e-05 4.9058259e-05 0.15064741) at location (-0.00014395116 -0.0014503614 0.0075)
    max(U) = (0.0074008846 0.071217846 1.338011) at location (-0.00010410186 -0.0011123239 0.0015)

Time = 0.196

Courant Number mean: 0.24325134 max: 0.59930739
smoothSolver:  Solving for Ux, Initial residual = 1.0668998e-06, Final residual = 2.7513316e-09, No Iterations 4
smoothSolver:  Solving for Uy, Initial residual = 1.7407981e-06, Final residual = 6.5922428e-09, No Iterations 4
smoothSolver:  Solving for Uz, Initial residual = 1.8985288e-09, Final residual = 1.8985288e-09, No Iterations 0
GAMGPCG:  Solving for p, Initial residual = 1.1347615e-06, Final residual = 2.5730557e-07, No Iterations 1
GAMGPCG:  Solving for p, Initial residual = 4.3723135e-07, Final residual = 4.3723135e-07, No Iterations 0
time step continuity errors : sum local = 2.2553808e-09, global = -2.1632854e-11, cumulative = 5.1921705e-09
GAMGPCG:  Solving for p, Initial residual = 1.0245513e-06, Final residual = 1.9176622e-07, No Iterations 1
GAMGPCG:  Solving for p, Initial residual = 3.6455841e-07, Final residual = 3.6455841e-07, No Iterations 0
time step continuity errors : sum local = 1.8805093e-09, global = -1.4869303e-11, cumulative = 5.1773012e-09
ExecutionTime = 263.81 s  ClockTime = 264 s

fieldMinMax minmaxdomain output:
    min(p) = 0 at location (-0.000525 0 0.216)
    max(p) = 18.624215 at location (0.00014395116 0.0014503614 0.0015)
    min(U) = (-7.9503462e-05 4.9058259e-05 0.15064741) at location (-0.00014395116 -0.0014503614 0.0075)
    max(U) = (0.0074008846 0.071217846 1.338011) at location (-0.00010410186 -0.0011123239 0.0015)

Time = 0.1965

Courant Number mean: 0.24325134 max: 0.59930739
smoothSolver:  Solving for Ux, Initial residual = 8.8048374e-07, Final residual = 9.0825685e-09, No Iterations 3
smoothSolver:  Solving for Uy, Initial residual = 1.273715e-06, Final residual = 4.9611975e-09, No Iterations 4
smoothSolver:  Solving for Uz, Initial residual = 1.8740849e-09, Final residual = 1.8740849e-09, No Iterations 0
GAMGPCG:  Solving for p, Initial residual = 1.0342152e-06, Final residual = 2.3800913e-07, No Iterations 1
GAMGPCG:  Solving for p, Initial residual = 3.9879361e-07, Final residual = 3.9879361e-07, No Iterations 0
time step continuity errors : sum local = 2.0571063e-09, global = -2.3420393e-11, cumulative = 5.1538808e-09
GAMGPCG:  Solving for p, Initial residual = 9.5400664e-07, Final residual = 9.5400664e-07, No Iterations 0
GAMGPCG:  Solving for p, Initial residual = 9.5400664e-07, Final residual = 9.5400664e-07, No Iterations 0
time step continuity errors : sum local = 4.9210742e-09, global = -2.6741064e-11, cumulative = 5.1271397e-09
ExecutionTime = 263.99 s  ClockTime = 264 s

fieldMinMax minmaxdomain output:
    min(p) = 0 at location (-0.000525 0 0.216)
    max(p) = 18.624215 at location (-0.00014395116 -0.0014503614 0.0015)
    min(U) = (-7.9503462e-05 4.9058259e-05 0.15064741) at location (-0.00014395116 -0.0014503614 0.0075)
    max(U) = (0.0074008846 0.071217846 1.338011) at location (-0.00010410186 -0.0011123239 0.0015)

Time = 0.197

Courant Number mean: 0.24325134 max: 0.59930739
smoothSolver:  Solving for Ux, Initial residual = 1.8647097e-06, Final residual = 4.8972336e-09, No Iterations 4
smoothSolver:  Solving for Uy, Initial residual = 2.3959965e-06, Final residual = 9.4571373e-09, No Iterations 4
smoothSolver:  Solving for Uz, Initial residual = 5.8077068e-09, Final residual = 5.8077068e-09, No Iterations 0
GAMGPCG:  Solving for p, Initial residual = 2.581216e-06, Final residual = 3.5543433e-07, No Iterations 1
GAMGPCG:  Solving for p, Initial residual = 7.6960011e-07, Final residual = 7.6960011e-07, No Iterations 0
time step continuity errors : sum local = 3.9698519e-09, global = -1.3218482e-11, cumulative = 5.1139212e-09
GAMGPCG:  Solving for p, Initial residual = 2.1332062e-06, Final residual = 1.7721036e-07, No Iterations 1
GAMGPCG:  Solving for p, Initial residual = 4.9881865e-07, Final residual = 4.9881865e-07, No Iterations 0
time step continuity errors : sum local = 2.5730674e-09, global = -3.9058454e-12, cumulative = 5.1100154e-09
ExecutionTime = 264.14 s  ClockTime = 264 s

fieldMinMax minmaxdomain output:
    min(p) = 0 at location (-0.000525 0 0.216)
    max(p) = 18.624216 at location (-0.00014395116 -0.0014503614 0.0015)
    min(U) = (-7.9503462e-05 4.9058259e-05 0.15064741) at location (-0.00014395116 -0.0014503614 0.0075)
    max(U) = (0.0074008846 0.071217846 1.338011) at location (-0.00010410186 -0.0011123239 0.0015)

Time = 0.1975

Courant Number mean: 0.24325134 max: 0.59930739
smoothSolver:  Solving for Ux, Initial residual = 1.1113762e-06, Final residual = 3.22543e-09, No Iterations 4
smoothSolver:  Solving for Uy, Initial residual = 1.7250063e-06, Final residual = 6.9419379e-09, No Iterations 4
smoothSolver:  Solving for Uz, Initial residual = 2.3479768e-09, Final residual = 2.3479768e-09, No Iterations 0
GAMGPCG:  Solving for p, Initial residual = 1.2713188e-06, Final residual = 2.6396449e-07, No Iterations 1
GAMGPCG:  Solving for p, Initial residual = 4.0900056e-07, Final residual = 4.0900056e-07, No Iterations 0
time step continuity errors : sum local = 2.1097579e-09, global = 2.5843557e-11, cumulative = 5.1358589e-09
GAMGPCG:  Solving for p, Initial residual = 1.0060195e-06, Final residual = 1.8662969e-07, No Iterations 1
GAMGPCG:  Solving for p, Initial residual = 3.1969283e-07, Final residual = 3.1969283e-07, No Iterations 0
time step continuity errors : sum local = 1.6490781e-09, global = 1.1374099e-11, cumulative = 5.147233e-09
ExecutionTime = 264.29 s  ClockTime = 265 s

fieldMinMax minmaxdomain output:
    min(p) = 0 at location (-0.000525 0 0.216)
    max(p) = 18.624216 at location (-0.0014503614 -0.00014395116 0.0015)
    min(U) = (-7.9503462e-05 4.905826e-05 0.15064741) at location (-0.00014395116 -0.0014503614 0.0075)
    max(U) = (0.0074008846 0.071217846 1.338011) at location (-0.00010410186 -0.0011123239 0.0015)

Time = 0.198

Courant Number mean: 0.24325134 max: 0.59930739
smoothSolver:  Solving for Ux, Initial residual = 6.8604252e-07, Final residual = 7.6837823e-09, No Iterations 3
smoothSolver:  Solving for Uy, Initial residual = 1.0511749e-06, Final residual = 4.310026e-09, No Iterations 4
smoothSolver:  Solving for Uz, Initial residual = 1.4888642e-09, Final residual = 1.4888642e-09, No Iterations 0
GAMGPCG:  Solving for p, Initial residual = 7.8893875e-07, Final residual = 7.8893875e-07, No Iterations 0
GAMGPCG:  Solving for p, Initial residual = 7.8893875e-07, Final residual = 7.8893875e-07, No Iterations 0
time step continuity errors : sum local = 4.0696003e-09, global = 1.4268322e-11, cumulative = 5.1615014e-09
GAMGPCG:  Solving for p, Initial residual = 7.8871077e-07, Final residual = 7.8871077e-07, No Iterations 0
GAMGPCG:  Solving for p, Initial residual = 7.8871077e-07, Final residual = 7.8871077e-07, No Iterations 0
time step continuity errors : sum local = 4.0684243e-09, global = 1.6068545e-11, cumulative = 5.1775699e-09
ExecutionTime = 264.42 s  ClockTime = 265 s

fieldMinMax minmaxdomain output:
    min(p) = 0 at location (-0.000525 0 0.216)
    max(p) = 18.624216 at location (-0.0014503614 -0.00014395116 0.0015)
    min(U) = (-7.9503461e-05 -4.905826e-05 0.15064741) at location (-0.00014395116 0.0014503614 0.0075)
    max(U) = (0.0074008846 0.071217846 1.338011) at location (-0.00010410186 -0.0011123239 0.0015)

Time = 0.1985

Courant Number mean: 0.24325134 max: 0.59930739
smoothSolver:  Solving for Ux, Initial residual = 5.5510041e-07, Final residual = 6.78252e-09, No Iterations 3
smoothSolver:  Solving for Uy, Initial residual = 8.9872717e-07, Final residual = 3.9555078e-09, No Iterations 4
smoothSolver:  Solving for Uz, Initial residual = 3.1492837e-09, Final residual = 3.1492837e-09, No Iterations 0
GAMGPCG:  Solving for p, Initial residual = 1.1627316e-06, Final residual = 2.8718015e-07, No Iterations 1
GAMGPCG:  Solving for p, Initial residual = 4.5133752e-07, Final residual = 4.5133752e-07, No Iterations 0
time step continuity errors : sum local = 2.3281455e-09, global = 3.2473316e-11, cumulative = 5.2100432e-09
GAMGPCG:  Solving for p, Initial residual = 1.0698059e-06, Final residual = 1.7481078e-07, No Iterations 1
GAMGPCG:  Solving for p, Initial residual = 3.4833605e-07, Final residual = 3.4833605e-07, No Iterations 0
time step continuity errors : sum local = 1.7968294e-09, global = 1.1227818e-11, cumulative = 5.221271e-09
ExecutionTime = 264.59 s  ClockTime = 265 s

fieldMinMax minmaxdomain output:
    min(p) = 0 at location (-0.000525 0 0.216)
    max(p) = 18.624216 at location (0.0014503614 -0.00014395116 0.0015)
    min(U) = (-7.9503462e-05 4.905826e-05 0.15064741) at location (-0.00014395116 -0.0014503614 0.0075)
    max(U) = (0.0074008846 0.071217846 1.338011) at location (-0.00010410186 -0.0011123239 0.0015)

Time = 0.199

Courant Number mean: 0.24325134 max: 0.59930739
smoothSolver:  Solving for Ux, Initial residual = 1.079472e-06, Final residual = 3.4053071e-09, No Iterations 4
smoothSolver:  Solving for Uy, Initial residual = 1.9065593e-06, Final residual = 8.5636612e-09, No Iterations 4
smoothSolver:  Solving for Uz, Initial residual = 1.949914e-09, Final residual = 1.949914e-09, No Iterations 0
GAMGPCG:  Solving for p, Initial residual = 1.0698439e-06, Final residual = 2.2951465e-07, No Iterations 1
GAMGPCG:  Solving for p, Initial residual = 3.7504735e-07, Final residual = 3.7504735e-07, No Iterations 0
time step continuity errors : sum local = 1.9346156e-09, global = 2.8356024e-11, cumulative = 5.2496271e-09
GAMGPCG:  Solving for p, Initial residual = 9.0903429e-07, Final residual = 9.0903429e-07, No Iterations 0
GAMGPCG:  Solving for p, Initial residual = 9.0903429e-07, Final residual = 9.0903429e-07, No Iterations 0
time step continuity errors : sum local = 4.6890924e-09, global = 3.279316e-11, cumulative = 5.2824202e-09
ExecutionTime = 264.76 s  ClockTime = 265 s

fieldMinMax minmaxdomain output:
    min(p) = 0 at location (-0.000525 0 0.216)
    max(p) = 18.624216 at location (-0.0014503614 0.00014395116 0.0015)
    min(U) = (-7.950346e-05 -4.905826e-05 0.15064741) at location (-0.00014395116 0.0014503614 0.0075)
    max(U) = (0.0074008846 0.071217846 1.338011) at location (-0.00010410186 -0.0011123239 0.0015)

Time = 0.1995

Courant Number mean: 0.24325134 max: 0.59930739
smoothSolver:  Solving for Ux, Initial residual = 2.2104234e-06, Final residual = 7.1438549e-09, No Iterations 4
smoothSolver:  Solving for Uy, Initial residual = 3.5525173e-06, Final residual = 4.4297972e-09, No Iterations 5
smoothSolver:  Solving for Uz, Initial residual = 5.885295e-09, Final residual = 5.885295e-09, No Iterations 0
GAMGPCG:  Solving for p, Initial residual = 2.6160214e-06, Final residual = 6.4128819e-07, No Iterations 1
GAMGPCG:  Solving for p, Initial residual = 1.0799158e-06, Final residual = 1.3061571e-07, No Iterations 1
time step continuity errors : sum local = 6.7375933e-10, global = 6.6149471e-13, cumulative = 5.2830817e-09
GAMGPCG:  Solving for p, Initial residual = 1.1727825e-06, Final residual = 2.2803367e-07, No Iterations 1
GAMGPCG:  Solving for p, Initial residual = 3.8456799e-07, Final residual = 3.8456799e-07, No Iterations 0
time step continuity errors : sum local = 1.9837255e-09, global = -3.2634345e-11, cumulative = 5.2504474e-09
ExecutionTime = 265.02 s  ClockTime = 265 s

fieldMinMax minmaxdomain output:
    min(p) = 0 at location (-0.000525 0 0.216)
    max(p) = 18.624215 at location (-0.00014395116 -0.0014503614 0.0015)
    min(U) = (-7.9503462e-05 4.905826e-05 0.15064741) at location (-0.00014395116 -0.0014503614 0.0075)
    max(U) = (0.0074008846 0.071217846 1.338011) at location (-0.00010410186 -0.0011123239 0.0015)

Time = 0.2

Courant Number mean: 0.24325134 max: 0.59930739
smoothSolver:  Solving for Ux, Initial residual = 1.0644354e-06, Final residual = 2.9834118e-09, No Iterations 4
smoothSolver:  Solving for Uy, Initial residual = 1.8445141e-06, Final residual = 8.2003908e-09, No Iterations 4
smoothSolver:  Solving for Uz, Initial residual = 2.2392878e-09, Final residual = 2.2392878e-09, No Iterations 0
GAMGPCG:  Solving for p, Initial residual = 7.6381801e-07, Final residual = 7.6381801e-07, No Iterations 0
GAMGPCG:  Solving for p, Initial residual = 7.6381801e-07, Final residual = 7.6381801e-07, No Iterations 0
time step continuity errors : sum local = 3.9400187e-09, global = -6.3353246e-11, cumulative = 5.1870941e-09
GAMGPCG:  Solving for p, Initial residual = 7.7224064e-07, Final residual = 7.7224064e-07, No Iterations 0
GAMGPCG:  Solving for p, Initial residual = 7.7224064e-07, Final residual = 7.7224064e-07, No Iterations 0
time step continuity errors : sum local = 3.9834653e-09, global = -7.6472984e-11, cumulative = 5.1106211e-09
ExecutionTime = 265.32 s  ClockTime = 266 s

fieldMinMax minmaxdomain output:
    min(p) = 0 at location (-0.000525 0 0.216)
    max(p) = 18.624215 at location (-0.00014395116 -0.0014503614 0.0015)
    min(U) = (-7.9503464e-05 4.905826e-05 0.15064741) at location (-0.00014395116 -0.0014503614 0.0075)
    max(U) = (0.0074008846 0.071217846 1.338011) at location (-0.00010410186 -0.0011123239 0.0015)

End

