/*---------------------------------------------------------------------------*\
| =========                 |                                                 |
| \\      /  F ield         | OpenFOAM: The Open Source CFD Toolbox           |
|  \\    /   O peration     | Version:  4.x                                   |
|   \\  /    A nd           | Web:      www.OpenFOAM.org                      |
|    \\/     M anipulation  |                                                 |
\*---------------------------------------------------------------------------*/
Build  : 4.x-e964d879e2b3
Exec   : simpleFoam
Date   : Jun 27 2017
Time   : 22:26:52
Host   : "linux-ifxc"
PID    : 8451
Case   : /home/joegi/my_cases_course/40x/101FVM/cyl_ste_uns
nProcs : 1
sigFpe : Enabling floating point exception trapping (FOAM_SIGFPE).
fileModificationChecking : Monitoring run-time modified files using timeStampMaster
allowSystemOperations : Allowing user-supplied system call operations

// * * * * * * * * * * * * * * * * * * * * * * * * * * * * * * * * * * * * * //
Create time

Create mesh for time = 0


SIMPLE: convergence criteria
    field p	 tolerance 0.0001
    field U	 tolerance 0.0001
    field nuTilda	 tolerance 0.0001
    field k	 tolerance 0.0001
    field omega	 tolerance 0.0001

Reading field p

Reading field U

Reading/calculating face flux field phi

Selecting incompressible transport model Newtonian
Selecting turbulence model type laminar
No MRF models present

No finite volume options present


Starting time loop

fieldAverage fieldAverage:
    Starting averaging at time 0

forces forceCoeffs_object:
    Not including porosity effects
forceCoeffs forceCoeffs_object:
    Not including porosity effects
Time = 1

DILUPBiCG:  Solving for Ux, Initial residual = 0.25919203, Final residual = 1.8860659e-09, No Iterations 8
DILUPBiCG:  Solving for Uy, Initial residual = 0.020226126, Final residual = 2.5603607e-09, No Iterations 7
GAMG:  Solving for p, Initial residual = 1, Final residual = 0.00079336925, No Iterations 12
GAMG:  Solving for p, Initial residual = 0.021538436, Final residual = 1.0121266e-05, No Iterations 9
GAMG:  Solving for p, Initial residual = 0.0041032565, Final residual = 2.1424355e-06, No Iterations 8
time step continuity errors : sum local = 2.3126529e-07, global = 2.4418009e-08, cumulative = 2.4418009e-08
ExecutionTime = 0.12 s  ClockTime = 0 s

forceCoeffs forceCoeffs_object write:
    Cm    = 0.58870305
    Cd    = 73.668793
    Cl    = 4.4117607
    Cl(f) = 2.7945834
    Cl(r) = 1.6171773

fieldMinMax minmaxdomain write:
    min(p) = -18.07525 at location (1.0270928 0.1215826 0)
    max(p) = 21.148819 at location (-1.033408 0.040619346 0)
    min(U) = (0.51714555 -0.070983995 3.3251564e-19) at location (-0.99550033 -0.28077103 0)
    max(U) = (0.98166227 0.31555458 6.5178734e-18) at location (0.77627858 -0.98482127 0)

Time = 2

DILUPBiCG:  Solving for Ux, Initial residual = 0.54693211, Final residual = 1.0323601e-09, No Iterations 9
DILUPBiCG:  Solving for Uy, Initial residual = 0.37529729, Final residual = 3.6785711e-10, No Iterations 9
GAMG:  Solving for p, Initial residual = 0.099428939, Final residual = 8.1735716e-05, No Iterations 11
GAMG:  Solving for p, Initial residual = 0.025856923, Final residual = 1.4047856e-05, No Iterations 9
GAMG:  Solving for p, Initial residual = 0.005915231, Final residual = 3.1233021e-06, No Iterations 8
time step continuity errors : sum local = 6.3680185e-08, global = -7.5794045e-09, cumulative = 1.6838604e-08
ExecutionTime = 0.16 s  ClockTime = 0 s

forceCoeffs forceCoeffs_object write:
    Cm    = 0.40482398
    Cd    = 52.608789
    Cl    = 2.4477082
    Cl(f) = 1.6286781
    Cl(r) = 0.81903013

fieldMinMax minmaxdomain write:
    min(p) = -12.613616 at location (1.033408 0.040619346 -2.5720097e-17)
    max(p) = 15.684373 at location (-1.033408 0.040619346 0)
    min(U) = (0.086593304 -0.26980301 -5.4574523e-18) at location (1.1056584 0.40791306 1.0450822e-17)
    max(U) = (1.4332282 -0.093019404 3.724299e-18) at location (0.13851888 1.1698851 -4.3429279e-17)

Time = 3

DILUPBiCG:  Solving for Ux, Initial residual = 0.20262358, Final residual = 4.9254143e-09, No Iterations 8
DILUPBiCG:  Solving for Uy, Initial residual = 0.24880167, Final residual = 6.5105256e-09, No Iterations 8
GAMG:  Solving for p, Initial residual = 0.24364839, Final residual = 0.00018921312, No Iterations 11
GAMG:  Solving for p, Initial residual = 0.025766053, Final residual = 1.2517932e-05, No Iterations 9
GAMG:  Solving for p, Initial residual = 0.0049852227, Final residual = 2.4236513e-06, No Iterations 8
time step continuity errors : sum local = 1.8928576e-07, global = -1.8687709e-08, cumulative = -1.8491043e-09
ExecutionTime = 0.2 s  ClockTime = 0 s

forceCoeffs forceCoeffs_object write:
    Cm    = 0.30470992
    Cd    = -0.48193885
    Cl    = -1.1296588
    Cl(f) = -0.26011949
    Cl(r) = -0.86953932

fieldMinMax minmaxdomain write:
    min(p) = -2.8970319 at location (-0.1215826 -1.0270928 0)
    max(p) = 2.660444 at location (1.1698851 0.13851888 -3.3711228e-17)
    min(U) = (0.1208816 -0.52076843 -1.2690715e-18) at location (-1.3279551 -0.48993943 -1.7163496e-17)
    max(U) = (1.5763575 -0.018999687 6.4409616e-19) at location (0.055568545 1.4126352 0)

Time = 4

DILUPBiCG:  Solving for Ux, Initial residual = 0.048194414, Final residual = 3.9816021e-09, No Iterations 7
DILUPBiCG:  Solving for Uy, Initial residual = 0.057442551, Final residual = 8.1897126e-09, No Iterations 7
GAMG:  Solving for p, Initial residual = 0.48535776, Final residual = 0.00032773841, No Iterations 11
GAMG:  Solving for p, Initial residual = 0.016190673, Final residual = 7.1139721e-06, No Iterations 9
GAMG:  Solving for p, Initial residual = 0.0030803663, Final residual = 1.4354367e-06, No Iterations 8
time step continuity errors : sum local = 9.4661598e-08, global = -8.9890499e-09, cumulative = -1.0838154e-08
ExecutionTime = 0.24 s  ClockTime = 0 s

forceCoeffs forceCoeffs_object write:
    Cm    = 0.24707687
    Cd    = -28.389525
    Cl    = -2.639455
    Cl(f) = -1.0726506
    Cl(r) = -1.5668044

fieldMinMax minmaxdomain write:
    min(p) = -9.9903105 at location (-1.033408 -0.040619346 0)
    max(p) = 9.5681974 at location (1.0270928 0.1215826 0)
    min(U) = (0.076714154 -0.18364781 -1.9790973e-18) at location (0.7020078 0.75945223 0)
    max(U) = (1.4739214 -0.03218214 1.3682617e-18) at location (0.055568545 1.4126352 0)

Time = 5

DILUPBiCG:  Solving for Ux, Initial residual = 0.20552477, Final residual = 4.2365106e-09, No Iterations 8
DILUPBiCG:  Solving for Uy, Initial residual = 0.20407037, Final residual = 3.3474401e-09, No Iterations 8
GAMG:  Solving for p, Initial residual = 0.18371327, Final residual = 0.00016562789, No Iterations 10
GAMG:  Solving for p, Initial residual = 0.046407882, Final residual = 2.5742313e-05, No Iterations 9
GAMG:  Solving for p, Initial residual = 0.0097984514, Final residual = 4.7327023e-06, No Iterations 8
time step continuity errors : sum local = 6.2714546e-08, global = 6.9928289e-09, cumulative = -3.8453253e-09
ExecutionTime = 0.3 s  ClockTime = 0 s

forceCoeffs forceCoeffs_object write:
    Cm    = 0.21008448
    Cd    = -15.549311
    Cl    = -1.4396861
    Cl(f) = -0.50975858
    Cl(r) = -0.92992754

fieldMinMax minmaxdomain write:
    min(p) = -5.5620174 at location (-1.033408 -0.040619346 0)
    max(p) = 5.1492183 at location (1.0270928 0.1215826 0)
    min(U) = (0.037251604 -0.065714072 -8.9624385e-19) at location (0.7020078 0.75945223 0)
    max(U) = (1.1625668 0.0049960371 7.4464896e-19) at location (27.103251 19.3304 -1.2464113e-17)

Time = 6

DILUPBiCG:  Solving for Ux, Initial residual = 0.15208976, Final residual = 4.2148464e-09, No Iterations 8
DILUPBiCG:  Solving for Uy, Initial residual = 0.12707863, Final residual = 3.5827182e-09, No Iterations 8
GAMG:  Solving for p, Initial residual = 0.3128691, Final residual = 0.00023822628, No Iterations 11
GAMG:  Solving for p, Initial residual = 0.022015171, Final residual = 1.0747686e-05, No Iterations 9
GAMG:  Solving for p, Initial residual = 0.0042917419, Final residual = 1.9937362e-06, No Iterations 8
time step continuity errors : sum local = 1.0377456e-07, global = 1.0362456e-08, cumulative = 6.5171304e-09
ExecutionTime = 0.35 s  ClockTime = 0 s

forceCoeffs forceCoeffs_object write:
    Cm    = 0.18477136
    Cd    = 11.385984
    Cl    = 0.37949826
    Cl(f) = 0.37452049
    Cl(r) = 0.004977771

fieldMinMax minmaxdomain write:
    min(p) = -2.8456925 at location (1.0270928 0.1215826 0)
    max(p) = 3.299461 at location (-1.033408 0.040619346 0)
    min(U) = (0.057704241 -0.053472684 0) at location (-1.0144308 -0.20179877 0)
    max(U) = (0.96179286 0.18178951 7.771153e-19) at location (-1.4831591 1.6047171 0)

Time = 7

DILUPBiCG:  Solving for Ux, Initial residual = 0.074164559, Final residual = 6.6717856e-09, No Iterations 7
DILUPBiCG:  Solving for Uy, Initial residual = 0.077576435, Final residual = 1.1338859e-10, No Iterations 9
GAMG:  Solving for p, Initial residual = 0.36786732, Final residual = 0.00028136703, No Iterations 10
GAMG:  Solving for p, Initial residual = 0.014394157, Final residual = 1.3248722e-05, No Iterations 8
GAMG:  Solving for p, Initial residual = 0.0027135871, Final residual = 1.2195166e-06, No Iterations 8
time step continuity errors : sum local = 3.8159091e-08, global = 4.8215447e-09, cumulative = 1.1338675e-08
ExecutionTime = 0.39 s  ClockTime = 0 s

forceCoeffs forceCoeffs_object write:
    Cm    = 0.16725547
    Cd    = 22.254334
    Cl    = 0.83845879
    Cl(f) = 0.58648486
    Cl(r) = 0.25197392

fieldMinMax minmaxdomain write:
    min(p) = -5.7299007 at location (1.0270928 0.1215826 0)
    max(p) = 6.7291807 at location (-1.033408 0.040619346 0)
    min(U) = (0.062320478 -0.078328105 1.2829336e-19) at location (-0.99550033 -0.28077103 0)
    max(U) = (1.0860124 0.0031607276 1.7900718e-18) at location (1.1769873 -18.101686 3.7568672e-17)

Time = 8

DILUPBiCG:  Solving for Ux, Initial residual = 0.11798839, Final residual = 4.277316e-09, No Iterations 8
DILUPBiCG:  Solving for Uy, Initial residual = 0.13850498, Final residual = 5.6475168e-09, No Iterations 8
GAMG:  Solving for p, Initial residual = 0.19509429, Final residual = 0.00013978742, No Iterations 11
GAMG:  Solving for p, Initial residual = 0.028053453, Final residual = 1.6161654e-05, No Iterations 9
GAMG:  Solving for p, Initial residual = 0.0060941263, Final residual = 2.7229825e-06, No Iterations 8
time step continuity errors : sum local = 4.6837795e-08, global = -4.5451416e-09, cumulative = 6.7935335e-09
ExecutionTime = 0.43 s  ClockTime = 0 s

forceCoeffs forceCoeffs_object write:
    Cm    = 0.15385621
    Cd    = 12.240514
    Cl    = -0.090759471
    Cl(f) = 0.10847648
    Cl(r) = -0.19923595

fieldMinMax minmaxdomain write:
    min(p) = -2.6199181 at location (0.93934113 -0.43303818 -1.3577844e-17)
    max(p) = 3.3589229 at location (-1.033408 0.040619346 0)
    min(U) = (0.0860142 -0.160166 -1.3506807e-18) at location (1.1056584 0.40791306 1.0450822e-17)
    max(U) = (1.2024945 0.35708787 6.4242861e-19) at location (-0.36201017 1.2833502 0)

Time = 9

DILUPBiCG:  Solving for Ux, Initial residual = 0.044504683, Final residual = 3.1617043e-09, No Iterations 7
DILUPBiCG:  Solving for Uy, Initial residual = 0.066991202, Final residual = 1.6463262e-09, No Iterations 8
GAMG:  Solving for p, Initial residual = 0.40639689, Final residual = 0.00030547118, No Iterations 11
GAMG:  Solving for p, Initial residual = 0.019316579, Final residual = 9.2849571e-06, No Iterations 9
GAMG:  Solving for p, Initial residual = 0.0037821884, Final residual = 1.6795848e-06, No Iterations 8
time step continuity errors : sum local = 5.4750352e-08, global = -5.5928367e-09, cumulative = 1.2006967e-09
ExecutionTime = 0.48 s  ClockTime = 0 s

forceCoeffs forceCoeffs_object write:
    Cm    = 0.14299534
    Cd    = -2.379391
    Cl    = -1.0882233
    Cl(f) = -0.40111633
    Cl(r) = -0.687107

fieldMinMax minmaxdomain write:
    min(p) = -2.5071086 at location (-0.28077103 -0.99550033 0)
    max(p) = 1.8423671 at location (1.1698851 0.13851888 -3.3711228e-17)
    min(U) = (0.085005521 -0.092193631 -7.3689535e-19) at location (0.7020078 0.75945223 0)
    max(U) = (1.3397604 0.014815716 5.7362147e-19) at location (0.055568545 1.4126352 0)

Time = 10

DILUPBiCG:  Solving for Ux, Initial residual = 0.044427907, Final residual = 3.7607121e-09, No Iterations 7
DILUPBiCG:  Solving for Uy, Initial residual = 0.048117688, Final residual = 6.0002267e-10, No Iterations 8
GAMG:  Solving for p, Initial residual = 0.24783765, Final residual = 0.00014045962, No Iterations 9
GAMG:  Solving for p, Initial residual = 0.013640456, Final residual = 8.3307871e-06, No Iterations 8
GAMG:  Solving for p, Initial residual = 0.0027358994, Final residual = 2.5229148e-06, No Iterations 7
time step continuity errors : sum local = 3.5262984e-08, global = -3.8194608e-09, cumulative = -2.6187641e-09
ExecutionTime = 0.52 s  ClockTime = 0 s

forceCoeffs forceCoeffs_object write:
    Cm    = 0.1340809
    Cd    = -6.5995083
    Cl    = -1.1867463
    Cl(f) = -0.45929225
    Cl(r) = -0.72745405

fieldMinMax minmaxdomain write:
    min(p) = -2.8535612 at location (-0.64029257 -0.81223633 -1.3621027e-17)
    max(p) = 2.7879181 at location (1.0270928 0.1215826 0)
    min(U) = (0.041623619 -0.053856421 -7.7937864e-19) at location (0.7020078 0.75945223 0)
    max(U) = (1.2857273 0.062433801 7.854638e-19) at location (0.17633502 -1.4887187 0)

Time = 11

DILUPBiCG:  Solving for Ux, Initial residual = 0.065654406, Final residual = 4.4890253e-09, No Iterations 7
DILUPBiCG:  Solving for Uy, Initial residual = 0.068390355, Final residual = 7.2799639e-10, No Iterations 8
GAMG:  Solving for p, Initial residual = 0.2312661, Final residual = 0.00014582728, No Iterations 11
GAMG:  Solving for p, Initial residual = 0.023799259, Final residual = 1.4092138e-05, No Iterations 9
GAMG:  Solving for p, Initial residual = 0.005207857, Final residual = 2.2047188e-06, No Iterations 8
time step continuity errors : sum local = 3.0935905e-08, global = 3.1548791e-09, cumulative = 5.3611503e-10
ExecutionTime = 0.55 s  ClockTime = 0 s

forceCoeffs forceCoeffs_object write:
    Cm    = 0.1266538
    Cd    = -0.18577095
    Cl    = -0.59243578
    Cl(f) = -0.16956409
    Cl(r) = -0.42287169

fieldMinMax minmaxdomain write:
    min(p) = -0.90624543 at location (-0.35801029 -0.97041867 2.6395898e-17)
    max(p) = 0.68650582 at location (1.0144308 0.20179877 0)
    min(U) = (0.03190333 -0.031406131 -1.8360124e-19) at location (0.7020078 0.75945223 0)
    max(U) = (1.2357651 0.064245816 2.5669358e-19) at location (0.17633502 -1.4887187 0)

Time = 12

DILUPBiCG:  Solving for Ux, Initial residual = 0.025327414, Final residual = 3.3101033e-09, No Iterations 7
DILUPBiCG:  Solving for Uy, Initial residual = 0.028606794, Final residual = 4.8737797e-09, No Iterations 7
GAMG:  Solving for p, Initial residual = 0.53333363, Final residual = 0.00038777922, No Iterations 11
GAMG:  Solving for p, Initial residual = 0.018453651, Final residual = 8.3999249e-06, No Iterations 9
GAMG:  Solving for p, Initial residual = 0.0035853041, Final residual = 1.5284092e-06, No Iterations 8
time step continuity errors : sum local = 2.7745999e-08, global = 3.0460638e-09, cumulative = 3.5821788e-09
ExecutionTime = 0.6 s  ClockTime = 1 s

forceCoeffs forceCoeffs_object write:
    Cm    = 0.12050041
    Cd    = 7.1673173
    Cl    = -0.11361394
    Cl(f) = 0.063693438
    Cl(r) = -0.17730738

fieldMinMax minmaxdomain write:
    min(p) = -1.5441323 at location (1.0270928 0.1215826 0)
    max(p) = 2.1260211 at location (-1.033408 0.040619346 0)
    min(U) = (0.020159849 -0.041331007 0) at location (-1.0270928 -0.1215826 0)
    max(U) = (0.92694861 0.25264129 4.8153124e-19) at location (-1.4831591 1.6047171 0)

Time = 13

DILUPBiCG:  Solving for Ux, Initial residual = 0.032406233, Final residual = 7.8485277e-10, No Iterations 8
DILUPBiCG:  Solving for Uy, Initial residual = 0.046498342, Final residual = 9.22477e-09, No Iterations 7
GAMG:  Solving for p, Initial residual = 0.2242602, Final residual = 0.00018784486, No Iterations 8
GAMG:  Solving for p, Initial residual = 0.022216015, Final residual = 9.9869493e-06, No Iterations 8
GAMG:  Solving for p, Initial residual = 0.0053341207, Final residual = 3.4818165e-06, No Iterations 7
time step continuity errors : sum local = 1.6001651e-08, global = 9.688262e-10, cumulative = 4.551005e-09
ExecutionTime = 0.63 s  ClockTime = 1 s

forceCoeffs forceCoeffs_object write:
    Cm    = 0.11523483
    Cd    = 8.2124153
    Cl    = -0.19020329
    Cl(f) = 0.020133182
    Cl(r) = -0.21033647

fieldMinMax minmaxdomain write:
    min(p) = -1.7875804 at location (1.033408 0.040619346 -2.5720097e-17)
    max(p) = 2.323811 at location (-1.033408 0.040619346 0)
    min(U) = (0.022052296 -0.063272246 0) at location (-1.0144308 -0.20179877 0)
    max(U) = (1.192422 0.18652528 3.0725646e-19) at location (0.68355432 -1.8526639 0)

Time = 14

DILUPBiCG:  Solving for Ux, Initial residual = 0.032110031, Final residual = 6.3259736e-10, No Iterations 8
DILUPBiCG:  Solving for Uy, Initial residual = 0.048986216, Final residual = 8.7071456e-10, No Iterations 8
GAMG:  Solving for p, Initial residual = 0.28515818, Final residual = 0.00017330676, No Iterations 11
GAMG:  Solving for p, Initial residual = 0.01862629, Final residual = 1.1054107e-05, No Iterations 9
GAMG:  Solving for p, Initial residual = 0.004077038, Final residual = 1.6703923e-06, No Iterations 8
time step continuity errors : sum local = 1.9270068e-08, global = -2.0309845e-09, cumulative = 2.5200206e-09
ExecutionTime = 0.68 s  ClockTime = 1 s

forceCoeffs forceCoeffs_object write:
    Cm    = 0.11043825
    Cd    = 4.0392095
    Cl    = -0.58593283
    Cl(f) = -0.18252816
    Cl(r) = -0.40340467

fieldMinMax minmaxdomain write:
    min(p) = -1.3434783 at location (0.28077103 -0.99550033 -1.3583342e-17)
    max(p) = 0.89765791 at location (-1.033408 0.040619346 0)
    min(U) = (0.055819713 -0.098637718 -4.9862942e-19) at location (1.1056584 0.40791306 1.0450822e-17)
    max(U) = (1.3044418 -0.0024024828 2.2444926e-19) at location (0.19741622 -1.6664575 0)

Time = 15

DILUPBiCG:  Solving for Ux, Initial residual = 0.012637651, Final residual = 1.3724507e-09, No Iterations 7
DILUPBiCG:  Solving for Uy, Initial residual = 0.022198504, Final residual = 5.014284e-09, No Iterations 7
GAMG:  Solving for p, Initial residual = 0.4658798, Final residual = 0.00032635508, No Iterations 11
GAMG:  Solving for p, Initial residual = 0.015866488, Final residual = 6.3841367e-06, No Iterations 9
GAMG:  Solving for p, Initial residual = 0.0030467468, Final residual = 1.26729e-06, No Iterations 8
time step continuity errors : sum local = 1.3735852e-08, global = -1.5354767e-09, cumulative = 9.8454392e-10
ExecutionTime = 0.72 s  ClockTime = 1 s

forceCoeffs forceCoeffs_object write:
    Cm    = 0.10603302
    Cd    = 0.2264423
    Cl    = -0.82962037
    Cl(f) = -0.30877717
    Cl(r) = -0.5208432

fieldMinMax minmaxdomain write:
    min(p) = -1.6277942 at location (-0.1215826 -1.0270928 0)
    max(p) = 0.68822334 at location (1.2452855 0.14746195 1.0249821e-17)
    min(U) = (0.046472261 -0.04421541 -3.888234e-19) at location (0.7020078 0.75945223 0)
    max(U) = (1.3004247 0.0021613984 1.6526838e-19) at location (0.19741622 -1.6664575 0)

Time = 16

DILUPBiCG:  Solving for Ux, Initial residual = 0.022352605, Final residual = 1.3371339e-09, No Iterations 7
DILUPBiCG:  Solving for Uy, Initial residual = 0.026772604, Final residual = 8.2112209e-09, No Iterations 7
GAMG:  Solving for p, Initial residual = 0.17706986, Final residual = 8.427037e-05, No Iterations 9
GAMG:  Solving for p, Initial residual = 0.043808749, Final residual = 2.7100613e-05, No Iterations 8
GAMG:  Solving for p, Initial residual = 0.012032788, Final residual = 7.0593858e-06, No Iterations 7
time step continuity errors : sum local = 1.0635452e-08, global = -4.2205157e-10, cumulative = 5.6249236e-10
ExecutionTime = 0.76 s  ClockTime = 1 s

forceCoeffs forceCoeffs_object write:
    Cm    = 0.10209169
    Cd    = 0.13476692
    Cl    = -0.74381301
    Cl(f) = -0.26981481
    Cl(r) = -0.4739982

fieldMinMax minmaxdomain write:
    min(p) = -1.2848408 at location (-0.20179877 -1.0144308 0)
    max(p) = 0.6259975 at location (1.0270928 0.1215826 0)
    min(U) = (0.031850605 -0.03095816 -2.9899347e-19) at location (0.7020078 0.75945223 0)
    max(U) = (1.2690498 0.067316208 1.2249094e-19) at location (0.34620897 -1.739467 -2.2302456e-17)

Time = 17

DILUPBiCG:  Solving for Ux, Initial residual = 0.020313421, Final residual = 1.2936915e-09, No Iterations 7
DILUPBiCG:  Solving for Uy, Initial residual = 0.024397279, Final residual = 3.3688911e-09, No Iterations 7
GAMG:  Solving for p, Initial residual = 0.25757, Final residual = 0.00024621064, No Iterations 10
GAMG:  Solving for p, Initial residual = 0.019422086, Final residual = 1.1126268e-05, No Iterations 9
GAMG:  Solving for p, Initial residual = 0.0042444664, Final residual = 4.12798e-06, No Iterations 7
time step continuity errors : sum local = 2.8057653e-08, global = 1.2007695e-09, cumulative = 1.7632619e-09
ExecutionTime = 0.8 s  ClockTime = 1 s

forceCoeffs forceCoeffs_object write:
    Cm    = 0.098638444
    Cd    = 2.5411031
    Cl    = -0.52367005
    Cl(f) = -0.16319658
    Cl(r) = -0.36047347

fieldMinMax minmaxdomain write:
    min(p) = -0.70226917 at location (0.1215826 -1.0270928 -2.6449118e-17)
    max(p) = 0.6967842 at location (-1.033408 0.040619346 0)
    min(U) = (0.030551624 -0.026798586 -6.3783291e-20) at location (0.7020078 0.75945223 0)
    max(U) = (1.234861 0.10833039 1.07629e-19) at location (-0.073509576 1.8677584 9.86917e-18)

Time = 18

DILUPBiCG:  Solving for Ux, Initial residual = 0.012529387, Final residual = 4.0855224e-09, No Iterations 7
DILUPBiCG:  Solving for Uy, Initial residual = 0.019859039, Final residual = 3.3743524e-09, No Iterations 7
GAMG:  Solving for p, Initial residual = 0.55882766, Final residual = 0.00050977603, No Iterations 10
GAMG:  Solving for p, Initial residual = 0.018802007, Final residual = 1.5583308e-05, No Iterations 8
GAMG:  Solving for p, Initial residual = 0.0036073246, Final residual = 3.5202079e-06, No Iterations 7
time step continuity errors : sum local = 1.6595667e-08, global = 1.0175538e-09, cumulative = 2.7808157e-09
ExecutionTime = 0.85 s  ClockTime = 1 s

forceCoeffs forceCoeffs_object write:
    Cm    = 0.095580062
    Cd    = 4.32613
    Cl    = -0.43177661
    Cl(f) = -0.12030824
    Cl(r) = -0.31146836

fieldMinMax minmaxdomain write:
    min(p) = -0.73882181 at location (0.97041867 -0.35801029 -1.3577708e-17)
    max(p) = 1.2249833 at location (-1.033408 0.040619346 0)
    min(U) = (0.012316359 -0.045735936 0) at location (-1.0270928 -0.1215826 0)
    max(U) = (1.2329521 0.12062915 1.0708116e-19) at location (-0.073509576 1.8677584 9.86917e-18)

Time = 19

DILUPBiCG:  Solving for Ux, Initial residual = 0.014225669, Final residual = 2.6602736e-09, No Iterations 7
DILUPBiCG:  Solving for Uy, Initial residual = 0.025852349, Final residual = 7.3942053e-09, No Iterations 7
GAMG:  Solving for p, Initial residual = 0.23560976, Final residual = 0.00014430974, No Iterations 9
GAMG:  Solving for p, Initial residual = 0.017377269, Final residual = 1.5191404e-05, No Iterations 8
GAMG:  Solving for p, Initial residual = 0.004356503, Final residual = 2.6228149e-06, No Iterations 7
time step continuity errors : sum local = 8.1045928e-09, global = 3.2024499e-10, cumulative = 3.1010606e-09
ExecutionTime = 0.88 s  ClockTime = 1 s

forceCoeffs forceCoeffs_object write:
    Cm    = 0.092741078
    Cd    = 4.0052439
    Cl    = -0.52404003
    Cl(f) = -0.16927893
    Cl(r) = -0.35476109

fieldMinMax minmaxdomain write:
    min(p) = -0.94695543 at location (0.43303818 -0.93934113 1.3577709e-17)
    max(p) = 1.0406487 at location (-1.033408 0.040619346 0)
    min(U) = (0.037191446 -0.05839987 -1.3852144e-19) at location (-1.1038218 -0.043395067 0)
    max(U) = (1.2663042 0.035342146 1.3760388e-19) at location (0.34620897 -1.739467 -2.2302456e-17)

Time = 20

DILUPBiCG:  Solving for Ux, Initial residual = 0.011417851, Final residual = 2.1630083e-09, No Iterations 7
DILUPBiCG:  Solving for Uy, Initial residual = 0.021923177, Final residual = 1.93189e-09, No Iterations 8
GAMG:  Solving for p, Initial residual = 0.45847901, Final residual = 0.00043277466, No Iterations 10
GAMG:  Solving for p, Initial residual = 0.013657459, Final residual = 7.1161509e-06, No Iterations 9
GAMG:  Solving for p, Initial residual = 0.0029473109, Final residual = 2.8487867e-06, No Iterations 7
time step continuity errors : sum local = 1.5941532e-08, global = -6.2436863e-10, cumulative = 2.476692e-09
ExecutionTime = 0.92 s  ClockTime = 1 s

    Reading/initialising field UMean
    Reading/initialising field pMean
    Reading/initialising field UPrime2Mean
    Reading/initialising field pPrime2Mean
fieldAverage fieldAverage write:
    Calculating averages

forceCoeffs forceCoeffs_object write:
    Cm    = 0.09001577
    Cd    = 2.5499456
    Cl    = -0.66080767
    Cl(f) = -0.24038807
    Cl(r) = -0.42041961

fieldMinMax minmaxdomain write:
    min(p) = -1.1528295 at location (0.1215826 -1.0270928 -2.6449118e-17)
    max(p) = 0.55580579 at location (-1.0270928 0.1215826 0)
    min(U) = (0.03735237 -0.064769678 -2.4986522e-19) at location (1.1056584 0.40791306 1.0450822e-17)
    max(U) = (1.2676745 0.031370118 1.5714071e-19) at location (0.34620897 -1.739467 -2.2302456e-17)

Time = 21

DILUPBiCG:  Solving for Ux, Initial residual = 0.010784811, Final residual = 9.3326085e-10, No Iterations 7
DILUPBiCG:  Solving for Uy, Initial residual = 0.016886322, Final residual = 2.408956e-09, No Iterations 7
GAMG:  Solving for p, Initial residual = 0.1774221, Final residual = 0.00012280132, No Iterations 10
GAMG:  Solving for p, Initial residual = 0.012824504, Final residual = 8.1275807e-06, No Iterations 8
GAMG:  Solving for p, Initial residual = 0.0024512892, Final residual = 1.0056502e-06, No Iterations 8
time step continuity errors : sum local = 3.4415563e-09, global = 5.296446e-11, cumulative = 2.5296565e-09
ExecutionTime = 0.97 s  ClockTime = 1 s

fieldAverage fieldAverage write:
    Calculating averages

forceCoeffs forceCoeffs_object write:
    Cm    = 0.087432019
    Cd    = 1.658162
    Cl    = -0.7025557
    Cl(f) = -0.26384583
    Cl(r) = -0.43870987

fieldMinMax minmaxdomain write:
    min(p) = -1.1629376 at location (0.040619346 -1.033408 0)
    max(p) = 0.33035555 at location (-1.0270928 0.1215826 0)
    min(U) = (0.030774337 -0.027305953 -2.0318816e-19) at location (0.7020078 0.75945223 0)
    max(U) = (1.2367294 0.13476042 2.1630096e-19) at location (-0.073509576 1.8677584 9.86917e-18)

Time = 22

DILUPBiCG:  Solving for Ux, Initial residual = 0.012246839, Final residual = 1.7523352e-09, No Iterations 7
DILUPBiCG:  Solving for Uy, Initial residual = 0.017552535, Final residual = 3.2488117e-09, No Iterations 7
GAMG:  Solving for p, Initial residual = 0.13933725, Final residual = 0.00010725984, No Iterations 9
GAMG:  Solving for p, Initial residual = 0.028024972, Final residual = 1.2788031e-05, No Iterations 9
GAMG:  Solving for p, Initial residual = 0.0066788193, Final residual = 3.797022e-06, No Iterations 7
time step continuity errors : sum local = 5.3312251e-09, global = -2.4620997e-11, cumulative = 2.5050355e-09
ExecutionTime = 1.01 s  ClockTime = 1 s

fieldAverage fieldAverage write:
    Calculating averages

forceCoeffs forceCoeffs_object write:
    Cm    = 0.085057112
    Cd    = 1.9379626
    Cl    = -0.64391139
    Cl(f) = -0.23689858
    Cl(r) = -0.40701281

fieldMinMax minmaxdomain write:
    min(p) = -0.95743244 at location (0.040619346 -1.033408 0)
    max(p) = 0.48935273 at location (-1.0270928 0.1215826 0)
    min(U) = (0.026043642 -0.022941578 -1.4407115e-19) at location (0.7020078 0.75945223 0)
    max(U) = (1.2314765 0.13580916 1.6723354e-19) at location (-0.073509576 1.8677584 9.86917e-18)

Time = 23

DILUPBiCG:  Solving for Ux, Initial residual = 0.010939987, Final residual = 1.0318086e-09, No Iterations 7
DILUPBiCG:  Solving for Uy, Initial residual = 0.017092257, Final residual = 3.8618676e-09, No Iterations 7
GAMG:  Solving for p, Initial residual = 0.19725512, Final residual = 0.00017297757, No Iterations 10
GAMG:  Solving for p, Initial residual = 0.020134556, Final residual = 8.2929702e-06, No Iterations 9
GAMG:  Solving for p, Initial residual = 0.0042769488, Final residual = 3.799626e-06, No Iterations 7
time step continuity errors : sum local = 8.6173372e-09, global = 2.6101671e-10, cumulative = 2.7660522e-09
ExecutionTime = 1.05 s  ClockTime = 1 s

fieldAverage fieldAverage write:
    Calculating averages

forceCoeffs forceCoeffs_object write:
    Cm    = 0.082904288
    Cd    = 2.7128399
    Cl    = -0.57668148
    Cl(f) = -0.20543645
    Cl(r) = -0.37124503

fieldMinMax minmaxdomain write:
    min(p) = -0.7918711 at location (0.1215826 -1.0270928 -2.6449118e-17)
    max(p) = 0.75323118 at location (-1.0270928 0.1215826 0)
    min(U) = (0.026009409 -0.022202071 -6.5219725e-20) at location (0.7020078 0.75945223 0)
    max(U) = (1.2268816 0.14127189 1.3713377e-19) at location (-0.073509576 1.8677584 9.86917e-18)

Time = 24

DILUPBiCG:  Solving for Ux, Initial residual = 0.0099198116, Final residual = 2.0885069e-09, No Iterations 7
DILUPBiCG:  Solving for Uy, Initial residual = 0.017696314, Final residual = 1.6770454e-09, No Iterations 7
GAMG:  Solving for p, Initial residual = 0.26259167, Final residual = 0.00024484338, No Iterations 9
GAMG:  Solving for p, Initial residual = 0.029882574, Final residual = 1.5503894e-05, No Iterations 8
GAMG:  Solving for p, Initial residual = 0.0059792612, Final residual = 5.2087382e-06, No Iterations 7
time step continuity errors : sum local = 4.6496229e-09, global = -1.9304663e-10, cumulative = 2.5730056e-09
ExecutionTime = 1.09 s  ClockTime = 1 s

fieldAverage fieldAverage write:
    Calculating averages

forceCoeffs forceCoeffs_object write:
    Cm    = 0.08091378
    Cd    = 3.0789989
    Cl    = -0.57129953
    Cl(f) = -0.20473599
    Cl(r) = -0.36656355

fieldMinMax minmaxdomain write:
    min(p) = -0.82039127 at location (0.20179877 -1.0144308 -1.3979898e-17)
    max(p) = 0.83678881 at location (-1.0270928 0.1215826 0)
    min(U) = (0.027911642 -0.023433901 -4.4910483e-20) at location (0.7020078 0.75945223 0)
    max(U) = (1.224839 0.14863433 1.4910489e-19) at location (-0.073509576 1.8677584 9.86917e-18)

Time = 25

DILUPBiCG:  Solving for Ux, Initial residual = 0.0095843269, Final residual = 1.4350781e-09, No Iterations 7
DILUPBiCG:  Solving for Uy, Initial residual = 0.018330842, Final residual = 1.7601957e-09, No Iterations 7
GAMG:  Solving for p, Initial residual = 0.25776064, Final residual = 0.00016739685, No Iterations 9
GAMG:  Solving for p, Initial residual = 0.0095205448, Final residual = 9.1785143e-06, No Iterations 8
GAMG:  Solving for p, Initial residual = 0.0023335694, Final residual = 1.3629975e-06, No Iterations 7
time step continuity errors : sum local = 3.5584057e-09, global = 1.8114273e-10, cumulative = 2.7541483e-09
ExecutionTime = 1.13 s  ClockTime = 1 s

fieldAverage fieldAverage write:
    Calculating averages

forceCoeffs forceCoeffs_object write:
    Cm    = 0.079009329
    Cd    = 2.8155832
    Cl    = -0.61612695
    Cl(f) = -0.22905414
    Cl(r) = -0.3870728

fieldMinMax minmaxdomain write:
    min(p) = -0.93699552 at location (0.20179877 -1.0144308 -1.3979898e-17)
    max(p) = 0.72113799 at location (-1.0270928 0.1215826 0)
    min(U) = (0.028160025 -0.023721979 -8.2127691e-20) at location (0.7020078 0.75945223 0)
    max(U) = (1.2244158 0.1540014 1.792081e-19) at location (-0.073509576 1.8677584 9.86917e-18)

Time = 26

DILUPBiCG:  Solving for Ux, Initial residual = 0.0090864414, Final residual = 1.8348351e-09, No Iterations 7
DILUPBiCG:  Solving for Uy, Initial residual = 0.016906337, Final residual = 1.6496293e-09, No Iterations 7
GAMG:  Solving for p, Initial residual = 0.14201043, Final residual = 0.00010311091, No Iterations 10
GAMG:  Solving for p, Initial residual = 0.008585725, Final residual = 6.5055321e-06, No Iterations 8
GAMG:  Solving for p, Initial residual = 0.0017957989, Final residual = 1.7423868e-06, No Iterations 7
time step continuity errors : sum local = 4.8069998e-09, global = -2.2809056e-10, cumulative = 2.5260577e-09
ExecutionTime = 1.17 s  ClockTime = 1 s

fieldAverage fieldAverage write:
    Calculating averages

forceCoeffs forceCoeffs_object write:
    Cm    = 0.077163799
    Cd    = 2.3584475
    Cl    = -0.65449725
    Cl(f) = -0.25008483
    Cl(r) = -0.40441243

fieldMinMax minmaxdomain write:
    min(p) = -1.0059318 at location (0.1215826 -1.0270928 -2.6449118e-17)
    max(p) = 0.58251709 at location (-1.0270928 0.1215826 0)
    min(U) = (0.025443955 -0.045605097 -1.5238622e-19) at location (1.1056584 0.40791306 1.0450822e-17)
    max(U) = (1.2235739 0.15629077 1.9237057e-19) at location (-0.073509576 1.8677584 9.86917e-18)

Time = 27

DILUPBiCG:  Solving for Ux, Initial residual = 0.0093395914, Final residual = 2.264234e-09, No Iterations 7
DILUPBiCG:  Solving for Uy, Initial residual = 0.016210993, Final residual = 1.6737063e-09, No Iterations 7
GAMG:  Solving for p, Initial residual = 0.085364057, Final residual = 7.85011e-05, No Iterations 8
GAMG:  Solving for p, Initial residual = 0.0090836661, Final residual = 4.861152e-06, No Iterations 8
GAMG:  Solving for p, Initial residual = 0.0018854039, Final residual = 7.1716786e-07, No Iterations 8
time step continuity errors : sum local = 1.1253008e-09, global = -3.2742866e-10, cumulative = 2.1986291e-09
ExecutionTime = 1.2 s  ClockTime = 1 s

fieldAverage fieldAverage write:
    Calculating averages

forceCoeffs forceCoeffs_object write:
    Cm    = 0.075400637
    Cd    = 2.1776723
    Cl    = -0.65310321
    Cl(f) = -0.25115097
    Cl(r) = -0.40195224

fieldMinMax minmaxdomain write:
    min(p) = -0.96887291 at location (0.040619346 -1.033408 0)
    max(p) = 0.5601718 at location (-1.0270928 0.1215826 0)
    min(U) = (0.022979761 -0.019614726 -1.2543791e-19) at location (0.7020078 0.75945223 0)
    max(U) = (1.2212794 0.15752481 1.7946251e-19) at location (-0.073509576 1.8677584 9.86917e-18)

Time = 28

DILUPBiCG:  Solving for Ux, Initial residual = 0.0093377458, Final residual = 3.3177401e-10, No Iterations 8
DILUPBiCG:  Solving for Uy, Initial residual = 0.016258164, Final residual = 1.6831687e-09, No Iterations 7
GAMG:  Solving for p, Initial residual = 0.087367746, Final residual = 8.1171802e-05, No Iterations 9
GAMG:  Solving for p, Initial residual = 0.025046812, Final residual = 1.1170499e-05, No Iterations 9
GAMG:  Solving for p, Initial residual = 0.0059531175, Final residual = 2.8082788e-06, No Iterations 7
time step continuity errors : sum local = 1.8815323e-09, global = 2.7659022e-12, cumulative = 2.201395e-09
ExecutionTime = 1.24 s  ClockTime = 1 s

fieldAverage fieldAverage write:
    Calculating averages

forceCoeffs forceCoeffs_object write:
    Cm    = 0.073748602
    Cd    = 2.3330257
    Cl    = -0.62643475
    Cl(f) = -0.23946877
    Cl(r) = -0.38696598

fieldMinMax minmaxdomain write:
    min(p) = -0.88040578 at location (0.040619346 -1.033408 0)
    max(p) = 0.63684422 at location (-1.0270928 0.1215826 0)
    min(U) = (0.021330424 -0.018077894 -9.8449825e-20) at location (0.7020078 0.75945223 0)
    max(U) = (1.1810815 0.24980351 1.9624025e-19) at location (-0.36538055 1.8357211 0)

Time = 29

DILUPBiCG:  Solving for Ux, Initial residual = 0.0088592075, Final residual = 4.9584309e-09, No Iterations 7
DILUPBiCG:  Solving for Uy, Initial residual = 0.016570547, Final residual = 1.6989043e-09, No Iterations 7
GAMG:  Solving for p, Initial residual = 0.092539632, Final residual = 7.4781304e-05, No Iterations 10
GAMG:  Solving for p, Initial residual = 0.018916397, Final residual = 9.8266419e-06, No Iterations 8
GAMG:  Solving for p, Initial residual = 0.0039662604, Final residual = 2.9435666e-06, No Iterations 7
time step continuity errors : sum local = 2.4234213e-09, global = 1.9229808e-10, cumulative = 2.393693e-09
ExecutionTime = 1.29 s  ClockTime = 1 s

fieldAverage fieldAverage write:
    Calculating averages

forceCoeffs forceCoeffs_object write:
    Cm    = 0.072206155
    Cd    = 2.5563619
    Cl    = -0.60784323
    Cl(f) = -0.23171546
    Cl(r) = -0.37612777

fieldMinMax minmaxdomain write:
    min(p) = -0.8372569 at location (0.1215826 -1.0270928 -2.6449118e-17)
    max(p) = 0.70735694 at location (-1.0270928 0.1215826 0)
    min(U) = (0.021191882 -0.017774108 -7.4488333e-20) at location (0.7020078 0.75945223 0)
    max(U) = (1.2151711 0.16400734 1.5157141e-19) at location (-0.073509576 1.8677584 9.86917e-18)

Time = 30

DILUPBiCG:  Solving for Ux, Initial residual = 0.0086082353, Final residual = 1.3947519e-09, No Iterations 7
DILUPBiCG:  Solving for Uy, Initial residual = 0.016986103, Final residual = 1.7818504e-09, No Iterations 7
GAMG:  Solving for p, Initial residual = 0.086848294, Final residual = 5.9288178e-05, No Iterations 9
GAMG:  Solving for p, Initial residual = 0.0069759237, Final residual = 3.1805263e-06, No Iterations 8
GAMG:  Solving for p, Initial residual = 0.0014785616, Final residual = 1.1871472e-06, No Iterations 7
time step continuity errors : sum local = 1.8474895e-09, global = 2.4027026e-11, cumulative = 2.4177201e-09
ExecutionTime = 1.33 s  ClockTime = 1 s

fieldAverage fieldAverage write:
    Calculating averages

forceCoeffs forceCoeffs_object write:
    Cm    = 0.070743006
    Cd    = 2.6078285
    Cl    = -0.61180624
    Cl(f) = -0.23516012
    Cl(r) = -0.37664613

fieldMinMax minmaxdomain write:
    min(p) = -0.86060856 at location (0.1215826 -1.0270928 -2.6449118e-17)
    max(p) = 0.70749526 at location (-1.0270928 0.1215826 0)
    min(U) = (0.021391307 -0.017842197 -7.3440377e-20) at location (0.7020078 0.75945223 0)
    max(U) = (1.2131332 0.16807103 1.5936401e-19) at location (-0.073509576 1.8677584 9.86917e-18)

Time = 31

DILUPBiCG:  Solving for Ux, Initial residual = 0.0083978278, Final residual = 1.3682686e-09, No Iterations 7
DILUPBiCG:  Solving for Uy, Initial residual = 0.016888935, Final residual = 2.101679e-09, No Iterations 7
GAMG:  Solving for p, Initial residual = 0.080650718, Final residual = 5.1827933e-05, No Iterations 9
GAMG:  Solving for p, Initial residual = 0.0048436412, Final residual = 2.3617543e-06, No Iterations 8
GAMG:  Solving for p, Initial residual = 0.0011413286, Final residual = 7.115897e-07, No Iterations 7
time step continuity errors : sum local = 1.4195458e-09, global = 9.9444263e-11, cumulative = 2.5171643e-09
ExecutionTime = 1.36 s  ClockTime = 1 s

fieldAverage fieldAverage write:
    Calculating averages

forceCoeffs forceCoeffs_object write:
    Cm    = 0.069329916
    Cd    = 2.4866445
    Cl    = -0.62617181
    Cl(f) = -0.24375599
    Cl(r) = -0.38241582

fieldMinMax minmaxdomain write:
    min(p) = -0.90165954 at location (0.1215826 -1.0270928 -2.6449118e-17)
    max(p) = 0.66111056 at location (-1.0270928 0.1215826 0)
    min(U) = (0.019662895 -0.035016451 -1.1370374e-19) at location (1.1056584 0.40791306 1.0450822e-17)
    max(U) = (1.2353046 0.031150262 1.6064221e-19) at location (0.83828981 -2.272007 0)

Time = 32

DILUPBiCG:  Solving for Ux, Initial residual = 0.0082536958, Final residual = 1.729095e-09, No Iterations 7
DILUPBiCG:  Solving for Uy, Initial residual = 0.016441742, Final residual = 1.8749002e-09, No Iterations 7
GAMG:  Solving for p, Initial residual = 0.057937394, Final residual = 3.3052388e-05, No Iterations 9
GAMG:  Solving for p, Initial residual = 0.0036766263, Final residual = 1.7045784e-06, No Iterations 8
GAMG:  Solving for p, Initial residual = 0.00078668073, Final residual = 9.4736417e-07, No Iterations 7
time step continuity errors : sum local = 1.6990729e-09, global = -1.3210118e-11, cumulative = 2.5039542e-09
ExecutionTime = 1.41 s  ClockTime = 1 s

fieldAverage fieldAverage write:
    Calculating averages

forceCoeffs forceCoeffs_object write:
    Cm    = 0.067960041
    Cd    = 2.3518276
    Cl    = -0.63221531
    Cl(f) = -0.24814761
    Cl(r) = -0.3840677

fieldMinMax minmaxdomain write:
    min(p) = -0.90993178 at location (0.040619346 -1.033408 0)
    max(p) = 0.62817244 at location (-1.0270928 0.1215826 0)
    min(U) = (0.01739228 -0.033021675 -1.0946343e-19) at location (1.1056584 0.40791306 1.0450822e-17)
    max(U) = (1.2119517 0.027287971 8.2774807e-20) at location (0.40588727 2.039092 0)

Time = 33

DILUPBiCG:  Solving for Ux, Initial residual = 0.0082089042, Final residual = 9.4212121e-09, No Iterations 7
DILUPBiCG:  Solving for Uy, Initial residual = 0.016197468, Final residual = 1.6572382e-09, No Iterations 7
GAMG:  Solving for p, Initial residual = 0.046637354, Final residual = 3.6640585e-05, No Iterations 9
GAMG:  Solving for p, Initial residual = 0.0047009671, Final residual = 3.9716029e-06, No Iterations 8
GAMG:  Solving for p, Initial residual = 0.0010290237, Final residual = 5.8939456e-07, No Iterations 8
time step continuity errors : sum local = 7.87361e-10, global = -1.2163586e-11, cumulative = 2.4917906e-09
ExecutionTime = 1.45 s  ClockTime = 1 s

fieldAverage fieldAverage write:
    Calculating averages

forceCoeffs forceCoeffs_object write:
    Cm    = 0.066643527
    Cd    = 2.3228646
    Cl    = -0.62454416
    Cl(f) = -0.24562855
    Cl(r) = -0.37891561

fieldMinMax minmaxdomain write:
    min(p) = -0.88229401 at location (0.040619346 -1.033408 0)
    max(p) = 0.63598273 at location (-1.0270928 0.1215826 0)
    min(U) = (0.015868478 -0.030618322 -9.4305126e-20) at location (1.1056584 0.40791306 1.0450822e-17)
    max(U) = (1.2111517 0.030188022 7.8927099e-20) at location (0.40588727 2.039092 0)

Time = 34

DILUPBiCG:  Solving for Ux, Initial residual = 0.0080284385, Final residual = 1.8513659e-10, No Iterations 8
DILUPBiCG:  Solving for Uy, Initial residual = 0.016234156, Final residual = 1.7146485e-09, No Iterations 7
GAMG:  Solving for p, Initial residual = 0.045530226, Final residual = 2.671969e-05, No Iterations 10
GAMG:  Solving for p, Initial residual = 0.0064885647, Final residual = 4.7595781e-06, No Iterations 8
GAMG:  Solving for p, Initial residual = 0.0014241212, Final residual = 5.259731e-07, No Iterations 7
time step continuity errors : sum local = 6.0868506e-10, global = 4.3921831e-11, cumulative = 2.5357125e-09
ExecutionTime = 1.49 s  ClockTime = 1 s

fieldAverage fieldAverage write:
    Calculating averages

forceCoeffs forceCoeffs_object write:
    Cm    = 0.065388635
    Cd    = 2.3832349
    Cl    = -0.61197045
    Cl(f) = -0.24059659
    Cl(r) = -0.37137386

fieldMinMax minmaxdomain write:
    min(p) = -0.84789328 at location (0.040619346 -1.033408 0)
    max(p) = 0.66423889 at location (-1.0270928 0.1215826 0)
    min(U) = (0.015239868 -0.028673923 -8.3402649e-20) at location (1.1056584 0.40791306 1.0450822e-17)
    max(U) = (1.2102342 0.033563445 7.6307759e-20) at location (0.40588727 2.039092 0)

Time = 35

DILUPBiCG:  Solving for Ux, Initial residual = 0.00780927, Final residual = 3.0077646e-09, No Iterations 7
DILUPBiCG:  Solving for Uy, Initial residual = 0.016410014, Final residual = 3.0334698e-09, No Iterations 7
GAMG:  Solving for p, Initial residual = 0.043092632, Final residual = 3.5205443e-05, No Iterations 9
GAMG:  Solving for p, Initial residual = 0.004776923, Final residual = 2.1911975e-06, No Iterations 8
GAMG:  Solving for p, Initial residual = 0.001025653, Final residual = 7.6485078e-07, No Iterations 7
time step continuity errors : sum local = 1.0280752e-09, global = -1.1824267e-10, cumulative = 2.4174698e-09
ExecutionTime = 1.52 s  ClockTime = 1 s

fieldAverage fieldAverage write:
    Calculating averages

forceCoeffs forceCoeffs_object write:
    Cm    = 0.064190867
    Cd    = 2.4407398
    Cl    = -0.60461386
    Cl(f) = -0.23811606
    Cl(r) = -0.3664978

fieldMinMax minmaxdomain write:
    min(p) = -0.83594923 at location (0.1215826 -1.0270928 -2.6449118e-17)
    max(p) = 0.68009516 at location (-1.0270928 0.1215826 0)
    min(U) = (0.014849679 -0.027398351 -8.3690578e-20) at location (1.1056584 0.40791306 1.0450822e-17)
    max(U) = (1.2095906 0.036994534 7.6610367e-20) at location (0.40588727 2.039092 0)

Time = 36

DILUPBiCG:  Solving for Ux, Initial residual = 0.0076528893, Final residual = 1.681087e-09, No Iterations 7
DILUPBiCG:  Solving for Uy, Initial residual = 0.016465528, Final residual = 2.3894179e-10, No Iterations 8
GAMG:  Solving for p, Initial residual = 0.041848814, Final residual = 4.0835868e-05, No Iterations 8
GAMG:  Solving for p, Initial residual = 0.003324218, Final residual = 1.5138533e-06, No Iterations 8
GAMG:  Solving for p, Initial residual = 0.00069550304, Final residual = 6.3580218e-07, No Iterations 7
time step continuity errors : sum local = 1.0203169e-09, global = 3.3393391e-10, cumulative = 2.7514037e-09
ExecutionTime = 1.56 s  ClockTime = 1 s

fieldAverage fieldAverage write:
    Calculating averages

forceCoeffs forceCoeffs_object write:
    Cm    = 0.063036749
    Cd    = 2.4370148
    Cl    = -0.60390328
    Cl(f) = -0.23891489
    Cl(r) = -0.36498839

fieldMinMax minmaxdomain write:
    min(p) = -0.84483523 at location (0.1215826 -1.0270928 -2.6449118e-17)
    max(p) = 0.67339438 at location (-1.0270928 0.1215826 0)
    min(U) = (0.014072368 -0.026344638 -8.9853756e-20) at location (1.1056584 0.40791306 1.0450822e-17)
    max(U) = (1.2091956 0.039985815 7.8245254e-20) at location (0.40588727 2.039092 0)

Time = 37

DILUPBiCG:  Solving for Ux, Initial residual = 0.0074920832, Final residual = 8.2213917e-09, No Iterations 6
DILUPBiCG:  Solving for Uy, Initial residual = 0.016295529, Final residual = 5.3997427e-09, No Iterations 7
GAMG:  Solving for p, Initial residual = 0.037624865, Final residual = 1.9829921e-05, No Iterations 9
GAMG:  Solving for p, Initial residual = 0.002373093, Final residual = 1.0913374e-06, No Iterations 8
GAMG:  Solving for p, Initial residual = 0.00051153511, Final residual = 3.8300987e-07, No Iterations 7
time step continuity errors : sum local = 6.3732023e-10, global = 8.1124924e-11, cumulative = 2.8325286e-09
ExecutionTime = 1.6 s  ClockTime = 2 s

fieldAverage fieldAverage write:
    Calculating averages

forceCoeffs forceCoeffs_object write:
    Cm    = 0.061915379
    Cd    = 2.3896484
    Cl    = -0.60403199
    Cl(f) = -0.24010062
    Cl(r) = -0.36393137

fieldMinMax minmaxdomain write:
    min(p) = -0.8534487 at location (0.040619346 -1.033408 0)
    max(p) = 0.65870729 at location (-1.0270928 0.1215826 0)
    min(U) = (0.012872312 -0.025030171 -9.283278e-20) at location (1.1056584 0.40791306 1.0450822e-17)
    max(U) = (1.2087552 0.042465771 7.8774814e-20) at location (0.40588727 2.039092 0)

Time = 38

DILUPBiCG:  Solving for Ux, Initial residual = 0.0073528554, Final residual = 8.2622905e-09, No Iterations 6
DILUPBiCG:  Solving for Uy, Initial residual = 0.016072524, Final residual = 8.0191697e-09, No Iterations 7
GAMG:  Solving for p, Initial residual = 0.031470918, Final residual = 1.6639092e-05, No Iterations 9
GAMG:  Solving for p, Initial residual = 0.0019076119, Final residual = 1.5320599e-06, No Iterations 8
GAMG:  Solving for p, Initial residual = 0.00046431183, Final residual = 4.2150945e-07, No Iterations 7
time step continuity errors : sum local = 6.4079962e-10, global = 8.5024054e-11, cumulative = 2.9175527e-09
ExecutionTime = 1.64 s  ClockTime = 2 s

fieldAverage fieldAverage write:
    Calculating averages

forceCoeffs forceCoeffs_object write:
    Cm    = 0.06082442
    Cd    = 2.3508527
    Cl    = -0.59979393
    Cl(f) = -0.23907254
    Cl(r) = -0.36072138

fieldMinMax minmaxdomain write:
    min(p) = -0.84776919 at location (0.040619346 -1.033408 0)
    max(p) = 0.65332297 at location (-1.0270928 0.1215826 0)
    min(U) = (0.011655986 -0.023401034 -8.9300165e-20) at location (1.1056584 0.40791306 1.0450822e-17)
    max(U) = (1.2080483 0.044743442 7.7481394e-20) at location (0.40588727 2.039092 0)

Time = 39

DILUPBiCG:  Solving for Ux, Initial residual = 0.0072116911, Final residual = 8.9250416e-10, No Iterations 7
DILUPBiCG:  Solving for Uy, Initial residual = 0.01595022, Final residual = 6.6952438e-09, No Iterations 7
GAMG:  Solving for p, Initial residual = 0.028551661, Final residual = 1.7500552e-05, No Iterations 9
GAMG:  Solving for p, Initial residual = 0.0026864846, Final residual = 1.2607182e-06, No Iterations 9
GAMG:  Solving for p, Initial residual = 0.00061076095, Final residual = 8.8397409e-07, No Iterations 6
time step continuity errors : sum local = 1.2133521e-09, global = 1.9320785e-11, cumulative = 2.9368735e-09
ExecutionTime = 1.68 s  ClockTime = 2 s

fieldAverage fieldAverage write:
    Calculating averages

forceCoeffs forceCoeffs_object write:
    Cm    = 0.059766488
    Cd    = 2.3482151
    Cl    = -0.59132209
    Cl(f) = -0.23589456
    Cl(r) = -0.35542753

fieldMinMax minmaxdomain write:
    min(p) = -0.83109113 at location (0.040619346 -1.033408 0)
    max(p) = 0.65999529 at location (-1.0270928 0.1215826 0)
    min(U) = (0.010763837 -0.021749789 -8.3034872e-20) at location (1.1056584 0.40791306 1.0450822e-17)
    max(U) = (1.2070982 0.047113334 7.5575558e-20) at location (0.40588727 2.039092 0)

Time = 40

DILUPBiCG:  Solving for Ux, Initial residual = 0.0070554077, Final residual = 1.7529123e-09, No Iterations 7
DILUPBiCG:  Solving for Uy, Initial residual = 0.015913599, Final residual = 4.3550114e-09, No Iterations 7
GAMG:  Solving for p, Initial residual = 0.027816497, Final residual = 1.5782454e-05, No Iterations 9
GAMG:  Solving for p, Initial residual = 0.0029581353, Final residual = 1.9016404e-06, No Iterations 8
GAMG:  Solving for p, Initial residual = 0.00064988287, Final residual = 9.9909515e-07, No Iterations 6
time step continuity errors : sum local = 1.3638236e-09, global = 7.4565544e-11, cumulative = 3.011439e-09
ExecutionTime = 1.71 s  ClockTime = 2 s

fieldAverage fieldAverage write:
    Calculating averages

forceCoeffs forceCoeffs_object write:
    Cm    = 0.058742434
    Cd    = 2.3675825
    Cl    = -0.58224138
    Cl(f) = -0.23237826
    Cl(r) = -0.34986313

fieldMinMax minmaxdomain write:
    min(p) = -0.81633638 at location (0.040619346 -1.033408 0)
    max(p) = 0.66917034 at location (-1.0270928 0.1215826 0)
    min(U) = (0.010175615 -0.020332137 -7.9308151e-20) at location (1.1056584 0.40791306 1.0450822e-17)
    max(U) = (1.2060763 0.049582144 7.4506891e-20) at location (0.40588727 2.039092 0)

Time = 41

DILUPBiCG:  Solving for Ux, Initial residual = 0.0069101879, Final residual = 7.5606487e-10, No Iterations 7
DILUPBiCG:  Solving for Uy, Initial residual = 0.015850256, Final residual = 3.9868281e-09, No Iterations 7
GAMG:  Solving for p, Initial residual = 0.027232277, Final residual = 2.6046252e-05, No Iterations 8
GAMG:  Solving for p, Initial residual = 0.0026334534, Final residual = 1.1320779e-06, No Iterations 8
GAMG:  Solving for p, Initial residual = 0.00055699755, Final residual = 4.4063697e-07, No Iterations 7
time step continuity errors : sum local = 6.4385531e-10, global = -7.7988357e-11, cumulative = 2.9334507e-09
ExecutionTime = 1.75 s  ClockTime = 2 s

fieldAverage fieldAverage write:
    Calculating averages

forceCoeffs forceCoeffs_object write:
    Cm    = 0.057748525
    Cd    = 2.379723
    Cl    = -0.57511892
    Cl(f) = -0.22981093
    Cl(r) = -0.34530798

fieldMinMax minmaxdomain write:
    min(p) = -0.81055738 at location (0.040619346 -1.033408 0)
    max(p) = 0.67210089 at location (-1.0270928 0.1215826 0)
    min(U) = (0.014581245 -0.046553895 -1.5068008e-19) at location (1.4887187 0.17633502 0)
    max(U) = (1.2051078 0.05194428 7.4512339e-20) at location (0.40588727 2.039092 0)

Time = 42

DILUPBiCG:  Solving for Ux, Initial residual = 0.0067714195, Final residual = 1.7804735e-09, No Iterations 7
DILUPBiCG:  Solving for Uy, Initial residual = 0.015682066, Final residual = 4.6773561e-09, No Iterations 7
GAMG:  Solving for p, Initial residual = 0.026251268, Final residual = 1.5968216e-05, No Iterations 9
GAMG:  Solving for p, Initial residual = 0.0022198538, Final residual = 1.7451171e-06, No Iterations 8
GAMG:  Solving for p, Initial residual = 0.00043469085, Final residual = 9.7858433e-07, No Iterations 6
time step continuity errors : sum local = 1.5001265e-09, global = 2.2577145e-11, cumulative = 2.9560278e-09
ExecutionTime = 1.79 s  ClockTime = 2 s

fieldAverage fieldAverage write:
    Calculating averages

forceCoeffs forceCoeffs_object write:
    Cm    = 0.056778735
    Cd    = 2.371943
    Cl    = -0.56939238
    Cl(f) = -0.22791745
    Cl(r) = -0.34147492

fieldMinMax minmaxdomain write:
    min(p) = -0.8100402 at location (0.040619346 -1.033408 0)
    max(p) = 0.66883483 at location (-1.0270928 0.1215826 0)
    min(U) = (0.012084436 -0.046691045 -1.4891746e-19) at location (1.4887187 0.17633502 0)
    max(U) = (1.2041754 0.054041997 7.4737784e-20) at location (0.40588727 2.039092 0)

Time = 43

DILUPBiCG:  Solving for Ux, Initial residual = 0.0066331931, Final residual = 1.9615894e-09, No Iterations 7
DILUPBiCG:  Solving for Uy, Initial residual = 0.01543417, Final residual = 6.6321844e-09, No Iterations 7
GAMG:  Solving for p, Initial residual = 0.024510158, Final residual = 1.7679022e-05, No Iterations 9
GAMG:  Solving for p, Initial residual = 0.0017714303, Final residual = 1.427465e-06, No Iterations 8
GAMG:  Solving for p, Initial residual = 0.00036919976, Final residual = 8.5513145e-07, No Iterations 6
time step continuity errors : sum local = 1.2941315e-09, global = -6.9565249e-11, cumulative = 2.8864625e-09
ExecutionTime = 1.83 s  ClockTime = 2 s

fieldAverage fieldAverage write:
    Calculating averages

forceCoeffs forceCoeffs_object write:
    Cm    = 0.05582867
    Cd    = 2.3541939
    Cl    = -0.56292908
    Cl(f) = -0.22563587
    Cl(r) = -0.33729321

fieldMinMax minmaxdomain write:
    min(p) = -0.80717817 at location (0.040619346 -1.033408 0)
    max(p) = 0.66523422 at location (-1.0270928 0.1215826 0)
    min(U) = (0.0096590279 -0.046701943 -1.4174696e-19) at location (1.4887187 0.17633502 0)
    max(U) = (1.2031782 0.055908521 7.4368934e-20) at location (0.40588727 2.039092 0)

Time = 44

DILUPBiCG:  Solving for Ux, Initial residual = 0.0064995066, Final residual = 1.2472003e-09, No Iterations 7
DILUPBiCG:  Solving for Uy, Initial residual = 0.01518254, Final residual = 1.1163616e-10, No Iterations 8
GAMG:  Solving for p, Initial residual = 0.023313878, Final residual = 1.5184064e-05, No Iterations 9
GAMG:  Solving for p, Initial residual = 0.0018233913, Final residual = 1.7108404e-06, No Iterations 8
GAMG:  Solving for p, Initial residual = 0.00041924257, Final residual = 8.530817e-07, No Iterations 6
time step continuity errors : sum local = 1.2330687e-09, global = -5.9819921e-13, cumulative = 2.8858643e-09
ExecutionTime = 1.87 s  ClockTime = 2 s

fieldAverage fieldAverage write:
    Calculating averages

forceCoeffs forceCoeffs_object write:
    Cm    = 0.054896686
    Cd    = 2.34252
    Cl    = -0.55455704
    Cl(f) = -0.22238183
    Cl(r) = -0.33217521

fieldMinMax minmaxdomain write:
    min(p) = -0.7989239 at location (0.040619346 -1.033408 0)
    max(p) = 0.66549532 at location (-1.0270928 0.1215826 0)
    min(U) = (0.007518752 -0.04658777 -1.3333934e-19) at location (1.4887187 0.17633502 0)
    max(U) = (1.2020469 0.05768874 7.3394971e-20) at location (0.40588727 2.039092 0)

Time = 45

DILUPBiCG:  Solving for Ux, Initial residual = 0.0063713122, Final residual = 9.2020677e-10, No Iterations 7
DILUPBiCG:  Solving for Uy, Initial residual = 0.014961373, Final residual = 1.072872e-10, No Iterations 8
GAMG:  Solving for p, Initial residual = 0.023044857, Final residual = 2.2149621e-05, No Iterations 8
GAMG:  Solving for p, Initial residual = 0.0021003747, Final residual = 1.0937821e-06, No Iterations 9
GAMG:  Solving for p, Initial residual = 0.00046581881, Final residual = 8.4025392e-07, No Iterations 6
time step continuity errors : sum local = 1.1832171e-09, global = 5.7731847e-11, cumulative = 2.9435962e-09
ExecutionTime = 1.91 s  ClockTime = 2 s

fieldAverage fieldAverage write:
    Calculating averages

forceCoeffs forceCoeffs_object write:
    Cm    = 0.053982461
    Cd    = 2.3424049
    Cl    = -0.54486219
    Cl(f) = -0.21844864
    Cl(r) = -0.32641356

fieldMinMax minmaxdomain write:
    min(p) = -0.78828664 at location (0.040619346 -1.033408 0)
    max(p) = 0.66872703 at location (-1.0270928 0.1215826 0)
    min(U) = (0.0056605823 -0.046371404 -1.2780534e-19) at location (1.4887187 0.17633502 0)
    max(U) = (1.2007975 0.059476297 7.2387248e-20) at location (0.40588727 2.039092 0)

Time = 46

DILUPBiCG:  Solving for Ux, Initial residual = 0.0062502066, Final residual = 7.9273498e-10, No Iterations 7
DILUPBiCG:  Solving for Uy, Initial residual = 0.014743463, Final residual = 1.057202e-10, No Iterations 8
GAMG:  Solving for p, Initial residual = 0.022873937, Final residual = 2.03348e-05, No Iterations 8
GAMG:  Solving for p, Initial residual = 0.0021811374, Final residual = 2.0529086e-06, No Iterations 8
GAMG:  Solving for p, Initial residual = 0.00046921447, Final residual = 8.5729816e-07, No Iterations 6
time step continuity errors : sum local = 1.2247906e-09, global = 6.068361e-11, cumulative = 3.0042798e-09
ExecutionTime = 1.94 s  ClockTime = 2 s

fieldAverage fieldAverage write:
    Calculating averages

forceCoeffs forceCoeffs_object write:
    Cm    = 0.053084822
    Cd    = 2.3472025
    Cl    = -0.53506889
    Cl(f) = -0.21444963
    Cl(r) = -0.32061927

fieldMinMax minmaxdomain write:
    min(p) = -0.77959791 at location (0.040619346 -1.033408 0)
    max(p) = 0.67147866 at location (-1.0270928 0.1215826 0)
    min(U) = (0.0039286686 -0.046073406 -1.2548013e-19) at location (1.4887187 0.17633502 0)
    max(U) = (1.1994944 0.061245744 7.1788953e-20) at location (0.40588727 2.039092 0)

Time = 47

DILUPBiCG:  Solving for Ux, Initial residual = 0.0061348104, Final residual = 6.6290682e-10, No Iterations 7
DILUPBiCG:  Solving for Uy, Initial residual = 0.014488977, Final residual = 5.932444e-09, No Iterations 7
GAMG:  Solving for p, Initial residual = 0.022222694, Final residual = 1.8031463e-05, No Iterations 8
GAMG:  Solving for p, Initial residual = 0.0020740487, Final residual = 1.6518431e-06, No Iterations 8
GAMG:  Solving for p, Initial residual = 0.00042935499, Final residual = 8.7139974e-07, No Iterations 6
time step continuity errors : sum local = 1.2804656e-09, global = 3.4148584e-11, cumulative = 3.0384284e-09
ExecutionTime = 1.98 s  ClockTime = 2 s

fieldAverage fieldAverage write:
    Calculating averages

forceCoeffs forceCoeffs_object write:
    Cm    = 0.0522012
    Cd    = 2.3481429
    Cl    = -0.52568667
    Cl(f) = -0.21064214
    Cl(r) = -0.31504454

fieldMinMax minmaxdomain write:
    min(p) = -0.77398998 at location (0.040619346 -1.033408 0)
    max(p) = 0.67184974 at location (-1.0270928 0.1215826 0)
    min(U) = (0.0021984439 -0.045697162 -1.2379388e-19) at location (1.4887187 0.17633502 0)
    max(U) = (1.1981834 0.062917215 7.1533458e-20) at location (0.40588727 2.039092 0)

Time = 48

DILUPBiCG:  Solving for Ux, Initial residual = 0.006019505, Final residual = 6.0679616e-10, No Iterations 7
DILUPBiCG:  Solving for Uy, Initial residual = 0.014189351, Final residual = 3.5403381e-09, No Iterations 7
GAMG:  Solving for p, Initial residual = 0.021346903, Final residual = 1.8528377e-05, No Iterations 8
GAMG:  Solving for p, Initial residual = 0.0018713242, Final residual = 1.8599876e-06, No Iterations 8
GAMG:  Solving for p, Initial residual = 0.00038543692, Final residual = 7.8058131e-07, No Iterations 6
time step continuity errors : sum local = 1.1575942e-09, global = 4.1691826e-11, cumulative = 3.0801202e-09
ExecutionTime = 2.02 s  ClockTime = 2 s

fieldAverage fieldAverage write:
    Calculating averages

forceCoeffs forceCoeffs_object write:
    Cm    = 0.051328565
    Cd    = 2.3429962
    Cl    = -0.51627599
    Cl(f) = -0.20680943
    Cl(r) = -0.30946656

fieldMinMax minmaxdomain write:
    min(p) = -0.76931998 at location (0.040619346 -1.033408 0)
    max(p) = 0.6707743 at location (-1.0270928 0.1215826 0)
    min(U) = (0.00047598849 -0.045235722 -1.20491e-19) at location (1.4887187 0.17633502 0)
    max(U) = (1.1968602 0.064454945 7.1259452e-20) at location (0.40588727 2.039092 0)

Time = 49

DILUPBiCG:  Solving for Ux, Initial residual = 0.0059057802, Final residual = 5.6404337e-10, No Iterations 7
DILUPBiCG:  Solving for Uy, Initial residual = 0.013872859, Final residual = 2.4838108e-09, No Iterations 7
GAMG:  Solving for p, Initial residual = 0.020772602, Final residual = 1.9856634e-05, No Iterations 8
GAMG:  Solving for p, Initial residual = 0.0017286064, Final residual = 1.7266668e-06, No Iterations 8
GAMG:  Solving for p, Initial residual = 0.0003735992, Final residual = 7.5596407e-07, No Iterations 6
time step continuity errors : sum local = 1.1053156e-09, global = 1.8616962e-11, cumulative = 3.0987372e-09
ExecutionTime = 2.06 s  ClockTime = 2 s

fieldAverage fieldAverage write:
    Calculating averages

forceCoeffs forceCoeffs_object write:
    Cm    = 0.050464558
    Cd    = 2.3359519
    Cl    = -0.506188
    Cl(f) = -0.20262944
    Cl(r) = -0.30355856

fieldMinMax minmaxdomain write:
    min(p) = -0.76323176 at location (0.040619346 -1.033408 0)
    max(p) = 0.67019867 at location (-1.0270928 0.1215826 0)
    min(U) = (-0.0011521077 -0.044687075 -1.1559415e-19) at location (1.4887187 0.17633502 0)
    max(U) = (1.195493 0.065895283 7.0741169e-20) at location (0.40588727 2.039092 0)

Time = 50

DILUPBiCG:  Solving for Ux, Initial residual = 0.0057957805, Final residual = 5.388095e-10, No Iterations 7
DILUPBiCG:  Solving for Uy, Initial residual = 0.013568313, Final residual = 2.0154645e-09, No Iterations 7
GAMG:  Solving for p, Initial residual = 0.020478001, Final residual = 1.5564955e-05, No Iterations 9
GAMG:  Solving for p, Initial residual = 0.0017745877, Final residual = 8.8299546e-07, No Iterations 9
GAMG:  Solving for p, Initial residual = 0.00039072714, Final residual = 7.8530131e-07, No Iterations 6
time step continuity errors : sum local = 1.1279371e-09, global = 2.566084e-11, cumulative = 3.124398e-09
ExecutionTime = 2.12 s  ClockTime = 2 s

fieldAverage fieldAverage write:
    Calculating averages

    Writing average fields


forceCoeffs forceCoeffs_object write:
    Cm    = 0.049607717
    Cd    = 2.331694
    Cl    = -0.49525926
    Cl(f) = -0.19802191
    Cl(r) = -0.29723735

fieldMinMax minmaxdomain write:
    min(p) = -0.75546927 at location (0.040619346 -1.033408 0)
    max(p) = 0.67090166 at location (-1.0270928 0.1215826 0)
    min(U) = (-0.0026272585 -0.044059702 -1.1070211e-19) at location (1.4887187 0.17633502 0)
    max(U) = (1.1940637 0.067298259 7.006207e-20) at location (0.40588727 2.039092 0)

Time = 51

DILUPBiCG:  Solving for Ux, Initial residual = 0.0056905634, Final residual = 5.1572365e-10, No Iterations 7
DILUPBiCG:  Solving for Uy, Initial residual = 0.013280087, Final residual = 1.7077986e-09, No Iterations 7
GAMG:  Solving for p, Initial residual = 0.019971501, Final residual = 1.881684e-05, No Iterations 9
GAMG:  Solving for p, Initial residual = 0.0018713408, Final residual = 1.0975789e-06, No Iterations 9
GAMG:  Solving for p, Initial residual = 0.00040090474, Final residual = 7.7205735e-07, No Iterations 6
time step continuity errors : sum local = 1.1061813e-09, global = 5.5389425e-11, cumulative = 3.1797874e-09
ExecutionTime = 2.21 s  ClockTime = 2 s

fieldAverage fieldAverage write:
    Calculating averages

forceCoeffs forceCoeffs_object write:
    Cm    = 0.048757038
    Cd    = 2.3309596
    Cl    = -0.48382053
    Cl(f) = -0.19315323
    Cl(r) = -0.29066731

fieldMinMax minmaxdomain write:
    min(p) = -0.74747419 at location (0.040619346 -1.033408 0)
    max(p) = 0.67213927 at location (-1.0270928 0.1215826 0)
    min(U) = (-0.0039682338 -0.043365541 -1.0703993e-19) at location (1.4887187 0.17633502 0)
    max(U) = (1.192585 0.068690654 6.9444279e-20) at location (0.40588727 2.039092 0)

Time = 52

DILUPBiCG:  Solving for Ux, Initial residual = 0.0055881332, Final residual = 4.6650976e-10, No Iterations 7
DILUPBiCG:  Solving for Uy, Initial residual = 0.01299432, Final residual = 1.5614822e-09, No Iterations 7
GAMG:  Solving for p, Initial residual = 0.019281834, Final residual = 1.8945687e-05, No Iterations 9
GAMG:  Solving for p, Initial residual = 0.0018861763, Final residual = 1.0395336e-06, No Iterations 9
GAMG:  Solving for p, Initial residual = 0.00039627015, Final residual = 7.6314528e-07, No Iterations 6
time step continuity errors : sum local = 1.1062533e-09, global = 6.4265936e-11, cumulative = 3.2440534e-09
ExecutionTime = 2.25 s  ClockTime = 2 s

fieldAverage fieldAverage write:
    Calculating averages

forceCoeffs forceCoeffs_object write:
    Cm    = 0.047911114
    Cd    = 2.3311403
    Cl    = -0.47223742
    Cl(f) = -0.1882076
    Cl(r) = -0.28402983

fieldMinMax minmaxdomain write:
    min(p) = -0.74049345 at location (0.040619346 -1.033408 0)
    max(p) = 0.67285216 at location (-1.0270928 0.1215826 0)
    min(U) = (-0.0052340116 -0.042611262 -1.0442418e-19) at location (1.4887187 0.17633502 0)
    max(U) = (1.191544 0.027659649 1.4577853e-19) at location (0.69065656 2.4478235 0)

Time = 53

DILUPBiCG:  Solving for Ux, Initial residual = 0.005488025, Final residual = 8.5873085e-09, No Iterations 6
DILUPBiCG:  Solving for Uy, Initial residual = 0.012701061, Final residual = 9.8876472e-09, No Iterations 6
GAMG:  Solving for p, Initial residual = 0.018488833, Final residual = 1.7803633e-05, No Iterations 9
GAMG:  Solving for p, Initial residual = 0.0018158336, Final residual = 9.475409e-07, No Iterations 9
GAMG:  Solving for p, Initial residual = 0.00038021891, Final residual = 7.445419e-07, No Iterations 6
time step continuity errors : sum local = 1.0909554e-09, global = 5.8003391e-11, cumulative = 3.3020568e-09
ExecutionTime = 2.29 s  ClockTime = 2 s

fieldAverage fieldAverage write:
    Calculating averages

forceCoeffs forceCoeffs_object write:
    Cm    = 0.047068186
    Cd    = 2.3297345
    Cl    = -0.46057102
    Cl(f) = -0.18321732
    Cl(r) = -0.2773537

fieldMinMax minmaxdomain write:
    min(p) = -0.73445737 at location (0.040619346 -1.033408 0)
    max(p) = 0.67277972 at location (-1.0270928 0.1215826 0)
    min(U) = (-0.0064612208 -0.041796977 -1.0188982e-19) at location (1.4887187 0.17633502 0)
    max(U) = (1.1909973 0.028927324 1.4554638e-19) at location (0.69065656 2.4478235 0)

Time = 54

DILUPBiCG:  Solving for Ux, Initial residual = 0.0053865435, Final residual = 4.3330472e-09, No Iterations 6
DILUPBiCG:  Solving for Uy, Initial residual = 0.012402535, Final residual = 9.5997307e-09, No Iterations 6
GAMG:  Solving for p, Initial residual = 0.017809333, Final residual = 1.6836189e-05, No Iterations 9
GAMG:  Solving for p, Initial residual = 0.0017137709, Final residual = 9.0179143e-07, No Iterations 9
GAMG:  Solving for p, Initial residual = 0.00036474555, Final residual = 7.1678937e-07, No Iterations 6
time step continuity errors : sum local = 1.049204e-09, global = 4.7462919e-11, cumulative = 3.3495197e-09
ExecutionTime = 2.33 s  ClockTime = 2 s

fieldAverage fieldAverage write:
    Calculating averages

forceCoeffs forceCoeffs_object write:
    Cm    = 0.046226475
    Cd    = 2.3265805
    Cl    = -0.44863965
    Cl(f) = -0.17809335
    Cl(r) = -0.2705463

fieldMinMax minmaxdomain write:
    min(p) = -0.72845055 at location (0.040619346 -1.033408 0)
    max(p) = 0.67245813 at location (-1.0270928 0.1215826 0)
    min(U) = (-0.0076411025 -0.040921901 -9.8815042e-20) at location (1.4887187 0.17633502 0)
    max(U) = (1.1904373 0.030183979 1.4516039e-19) at location (0.69065656 2.4478235 0)

Time = 55

DILUPBiCG:  Solving for Ux, Initial residual = 0.0052855544, Final residual = 3.4792903e-09, No Iterations 6
DILUPBiCG:  Solving for Uy, Initial residual = 0.01210785, Final residual = 9.4333857e-09, No Iterations 6
GAMG:  Solving for p, Initial residual = 0.017311006, Final residual = 1.6829493e-05, No Iterations 9
GAMG:  Solving for p, Initial residual = 0.0016589782, Final residual = 8.6569586e-07, No Iterations 9
GAMG:  Solving for p, Initial residual = 0.00036021992, Final residual = 7.1159268e-07, No Iterations 6
time step continuity errors : sum local = 1.0312816e-09, global = 3.5750152e-11, cumulative = 3.3852698e-09
ExecutionTime = 2.37 s  ClockTime = 2 s

fieldAverage fieldAverage write:
    Calculating averages

forceCoeffs forceCoeffs_object write:
    Cm    = 0.045384536
    Cd    = 2.3232358
    Cl    = -0.43629143
    Cl(f) = -0.17276118
    Cl(r) = -0.26353025

fieldMinMax minmaxdomain write:
    min(p) = -0.72184549 at location (0.040619346 -1.033408 0)
    max(p) = 0.67245746 at location (-1.0270928 0.1215826 0)
    min(U) = (-0.0087452696 -0.039989162 -9.5382118e-20) at location (1.4887187 0.17633502 0)
    max(U) = (1.1898627 0.031451064 1.4454906e-19) at location (0.69065656 2.4478235 0)

Time = 56

DILUPBiCG:  Solving for Ux, Initial residual = 0.0051857354, Final residual = 3.411855e-09, No Iterations 6
DILUPBiCG:  Solving for Uy, Initial residual = 0.011824895, Final residual = 9.2588142e-09, No Iterations 6
GAMG:  Solving for p, Initial residual = 0.016822624, Final residual = 9.7658767e-06, No Iterations 10
GAMG:  Solving for p, Initial residual = 0.0016664551, Final residual = 9.1944956e-07, No Iterations 9
GAMG:  Solving for p, Initial residual = 0.0003617363, Final residual = 7.0552237e-07, No Iterations 6
time step continuity errors : sum local = 1.0143341e-09, global = 7.3851734e-11, cumulative = 3.4591216e-09
ExecutionTime = 2.41 s  ClockTime = 2 s

fieldAverage fieldAverage write:
    Calculating averages

forceCoeffs forceCoeffs_object write:
    Cm    = 0.044541229
    Cd    = 2.3209932
    Cl    = -0.42355801
    Cl(f) = -0.16723777
    Cl(r) = -0.25632023

fieldMinMax minmaxdomain write:
    min(p) = -0.71481651 at location (0.040619346 -1.033408 0)
    max(p) = 0.67282761 at location (-1.0270928 0.1215826 0)
    min(U) = (-0.0097612189 -0.039005313 -9.2155205e-20) at location (1.4887187 0.17633502 0)
    max(U) = (1.1892766 0.032748938 1.4387421e-19) at location (0.69065656 2.4478235 0)

Time = 57

DILUPBiCG:  Solving for Ux, Initial residual = 0.0050856792, Final residual = 3.8940815e-09, No Iterations 6
DILUPBiCG:  Solving for Uy, Initial residual = 0.011551074, Final residual = 8.9962858e-09, No Iterations 6
GAMG:  Solving for p, Initial residual = 0.016270077, Final residual = 9.9325695e-06, No Iterations 10
GAMG:  Solving for p, Initial residual = 0.0016897896, Final residual = 1.0346463e-06, No Iterations 9
GAMG:  Solving for p, Initial residual = 0.00035970242, Final residual = 7.002996e-07, No Iterations 6
time step continuity errors : sum local = 1.0070961e-09, global = 7.6703681e-11, cumulative = 3.5358253e-09
ExecutionTime = 2.46 s  ClockTime = 2 s

fieldAverage fieldAverage write:
    Calculating averages

forceCoeffs forceCoeffs_object write:
    Cm    = 0.043695534
    Cd    = 2.3197826
    Cl    = -0.41058651
    Cl(f) = -0.16159772
    Cl(r) = -0.24898879

fieldMinMax minmaxdomain write:
    min(p) = -0.70793755 at location (0.040619346 -1.033408 0)
    max(p) = 0.67321461 at location (-1.0270928 0.1215826 0)
    min(U) = (-0.010702134 -0.037976361 -8.9438238e-20) at location (1.4887187 0.17633502 0)
    max(U) = (1.188691 0.034082542 1.4331028e-19) at location (0.69065656 2.4478235 0)

Time = 58

DILUPBiCG:  Solving for Ux, Initial residual = 0.0049856639, Final residual = 4.5637438e-09, No Iterations 6
DILUPBiCG:  Solving for Uy, Initial residual = 0.011280903, Final residual = 8.6737366e-09, No Iterations 6
GAMG:  Solving for p, Initial residual = 0.015658171, Final residual = 9.5113432e-06, No Iterations 10
GAMG:  Solving for p, Initial residual = 0.0016761426, Final residual = 1.0421289e-06, No Iterations 9
GAMG:  Solving for p, Initial residual = 0.00035321364, Final residual = 6.9078102e-07, No Iterations 6
time step continuity errors : sum local = 9.9872096e-10, global = 7.877687e-11, cumulative = 3.6146021e-09
ExecutionTime = 2.5 s  ClockTime = 2 s

fieldAverage fieldAverage write:
    Calculating averages

forceCoeffs forceCoeffs_object write:
    Cm    = 0.042846374
    Cd    = 2.3186696
    Cl    = -0.39748525
    Cl(f) = -0.15589625
    Cl(r) = -0.241589

fieldMinMax minmaxdomain write:
    min(p) = -0.70152493 at location (0.040619346 -1.033408 0)
    max(p) = 0.67332364 at location (-1.0270928 0.1215826 0)
    min(U) = (-0.011589903 -0.036905331 -8.7074648e-20) at location (1.4887187 0.17633502 0)
    max(U) = (1.1881218 0.035445278 1.4288221e-19) at location (0.69065656 2.4478235 0)

Time = 59

DILUPBiCG:  Solving for Ux, Initial residual = 0.0048851641, Final residual = 5.2987249e-09, No Iterations 6
DILUPBiCG:  Solving for Uy, Initial residual = 0.011010977, Final residual = 8.4079841e-09, No Iterations 6
GAMG:  Solving for p, Initial residual = 0.015064233, Final residual = 8.9643031e-06, No Iterations 10
GAMG:  Solving for p, Initial residual = 0.0016241089, Final residual = 9.9100432e-07, No Iterations 9
GAMG:  Solving for p, Initial residual = 0.0003440255, Final residual = 6.7621194e-07, No Iterations 6
time step continuity errors : sum local = 9.8053496e-10, global = 7.8239914e-11, cumulative = 3.692842e-09
ExecutionTime = 2.55 s  ClockTime = 2 s

fieldAverage fieldAverage write:
    Calculating averages

forceCoeffs forceCoeffs_object write:
    Cm    = 0.041992667
    Cd    = 2.3169792
    Cl    = -0.38425609
    Cl(f) = -0.15013538
    Cl(r) = -0.23412071

fieldMinMax minmaxdomain write:
    min(p) = -0.69542162 at location (0.040619346 -1.033408 0)
    max(p) = 0.67318298 at location (-1.0270928 0.1215826 0)
    min(U) = (-0.012435324 -0.035793346 -8.4733738e-20) at location (1.4887187 0.17633502 0)
    max(U) = (1.1875809 0.036831838 1.4248992e-19) at location (0.69065656 2.4478235 0)

Time = 60

DILUPBiCG:  Solving for Ux, Initial residual = 0.0047843659, Final residual = 5.9353193e-09, No Iterations 6
DILUPBiCG:  Solving for Uy, Initial residual = 0.010742283, Final residual = 8.2988487e-09, No Iterations 6
GAMG:  Solving for p, Initial residual = 0.014535654, Final residual = 8.5931468e-06, No Iterations 10
GAMG:  Solving for p, Initial residual = 0.0015650486, Final residual = 9.2891791e-07, No Iterations 9
GAMG:  Solving for p, Initial residual = 0.00033604637, Final residual = 6.6065102e-07, No Iterations 6
time step continuity errors : sum local = 9.5494727e-10, global = 7.6346689e-11, cumulative = 3.7691887e-09
ExecutionTime = 2.59 s  ClockTime = 3 s

fieldAverage fieldAverage write:
    Calculating averages

forceCoeffs forceCoeffs_object write:
    Cm    = 0.041133432
    Cd    = 2.3148207
    Cl    = -0.37085025
    Cl(f) = -0.14429169
    Cl(r) = -0.22655856

fieldMinMax minmaxdomain write:
    min(p) = -0.68929099 at location (0.040619346 -1.033408 0)
    max(p) = 0.67302203 at location (-1.0270928 0.1215826 0)
    min(U) = (-0.01323464 -0.034642142 -8.2266584e-20) at location (1.4887187 0.17633502 0)
    max(U) = (1.1870742 0.038244545 1.4204468e-19) at location (0.69065656 2.4478235 0)

Time = 61

DILUPBiCG:  Solving for Ux, Initial residual = 0.0046849127, Final residual = 6.4998609e-09, No Iterations 6
DILUPBiCG:  Solving for Uy, Initial residual = 0.010476119, Final residual = 8.3624475e-09, No Iterations 6
GAMG:  Solving for p, Initial residual = 0.014160699, Final residual = 8.3834346e-06, No Iterations 10
GAMG:  Solving for p, Initial residual = 0.0015316735, Final residual = 8.9999485e-07, No Iterations 9
GAMG:  Solving for p, Initial residual = 0.00033151038, Final residual = 6.4913722e-07, No Iterations 6
time step continuity errors : sum local = 9.3181868e-10, global = 7.3602794e-11, cumulative = 3.8427915e-09
ExecutionTime = 2.62 s  ClockTime = 3 s

fieldAverage fieldAverage write:
    Calculating averages

forceCoeffs forceCoeffs_object write:
    Cm    = 0.040267863
    Cd    = 2.3127295
    Cl    = -0.35725385
    Cl(f) = -0.13835906
    Cl(r) = -0.21889479

fieldMinMax minmaxdomain write:
    min(p) = -0.68298804 at location (0.040619346 -1.033408 0)
    max(p) = 0.67299853 at location (-1.0270928 0.1215826 0)
    min(U) = (-0.013980366 -0.033455313 -7.9782687e-20) at location (1.4887187 0.17633502 0)
    max(U) = (1.1866044 0.03969216 1.4155782e-19) at location (0.69065656 2.4478235 0)

Time = 62

DILUPBiCG:  Solving for Ux, Initial residual = 0.004587072, Final residual = 6.7919603e-09, No Iterations 6
DILUPBiCG:  Solving for Uy, Initial residual = 0.010214486, Final residual = 8.5506129e-09, No Iterations 6
GAMG:  Solving for p, Initial residual = 0.013817824, Final residual = 8.0831727e-06, No Iterations 10
GAMG:  Solving for p, Initial residual = 0.0015246645, Final residual = 9.3546508e-07, No Iterations 9
GAMG:  Solving for p, Initial residual = 0.00032810932, Final residual = 6.409129e-07, No Iterations 6
time step continuity errors : sum local = 9.1445138e-10, global = 7.2902153e-11, cumulative = 3.9156937e-09
ExecutionTime = 2.67 s  ClockTime = 3 s

fieldAverage fieldAverage write:
    Calculating averages

forceCoeffs forceCoeffs_object write:
    Cm    = 0.039395314
    Cd    = 2.3110381
    Cl    = -0.34351195
    Cl(f) = -0.13236066
    Cl(r) = -0.21115129

fieldMinMax minmaxdomain write:
    min(p) = -0.67664005 at location (0.040619346 -1.033408 0)
    max(p) = 0.67307437 at location (-1.0270928 0.1215826 0)
    min(U) = (-0.014672049 -0.032237254 -7.7464755e-20) at location (1.4887187 0.17633502 0)
    max(U) = (1.1861716 0.041186385 1.4110457e-19) at location (0.69065656 2.4478235 0)

Time = 63

DILUPBiCG:  Solving for Ux, Initial residual = 0.0044901603, Final residual = 7.1586345e-09, No Iterations 6
DILUPBiCG:  Solving for Uy, Initial residual = 0.0099564237, Final residual = 8.8020629e-09, No Iterations 6
GAMG:  Solving for p, Initial residual = 0.013466888, Final residual = 7.689117e-06, No Iterations 10
GAMG:  Solving for p, Initial residual = 0.0015186334, Final residual = 9.8522277e-07, No Iterations 9
GAMG:  Solving for p, Initial residual = 0.00032317221, Final residual = 6.3311153e-07, No Iterations 6
time step continuity errors : sum local = 9.0111967e-10, global = 7.4120071e-11, cumulative = 3.9898137e-09
ExecutionTime = 2.71 s  ClockTime = 3 s

fieldAverage fieldAverage write:
    Calculating averages

forceCoeffs forceCoeffs_object write:
    Cm    = 0.038515245
    Cd    = 2.3096343
    Cl    = -0.32969075
    Cl(f) = -0.12633013
    Cl(r) = -0.20336062

fieldMinMax minmaxdomain write:
    min(p) = -0.67045374 at location (0.040619346 -1.033408 0)
    max(p) = 0.67310818 at location (-1.0270928 0.1215826 0)
    min(U) = (-0.015317103 -0.030991531 -7.537535e-20) at location (1.4887187 0.17633502 0)
    max(U) = (1.1857787 0.042727447 1.4074349e-19) at location (0.69065656 2.4478235 0)

Time = 64

DILUPBiCG:  Solving for Ux, Initial residual = 0.0043937393, Final residual = 7.5768389e-09, No Iterations 6
DILUPBiCG:  Solving for Uy, Initial residual = 0.0097008775, Final residual = 9.1034696e-09, No Iterations 6
GAMG:  Solving for p, Initial residual = 0.013049717, Final residual = 7.2495567e-06, No Iterations 10
GAMG:  Solving for p, Initial residual = 0.0014946269, Final residual = 9.9366984e-07, No Iterations 9
GAMG:  Solving for p, Initial residual = 0.00031664657, Final residual = 6.2409973e-07, No Iterations 6
time step continuity errors : sum local = 8.8834671e-10, global = 7.5552648e-11, cumulative = 4.0653664e-09
ExecutionTime = 2.75 s  ClockTime = 3 s

fieldAverage fieldAverage write:
    Calculating averages

forceCoeffs forceCoeffs_object write:
    Cm    = 0.037627169
[...]
    max(p) = 0.68833562 at location (-1.033408 -0.040619346 0)
    min(U) = (-0.020104671 -0.0034337393 -7.7912575e-20) at location (2.4139601 0.095040936 0)
    max(U) = (1.1575183 0.21894491 1.434804e-19) at location (0.11532917 2.9286265 -1.9646976e-17)

Time = 352

DILUPBiCG:  Solving for Ux, Initial residual = 2.5651651e-05, Final residual = 1.8520527e-09, No Iterations 4
DILUPBiCG:  Solving for Uy, Initial residual = 7.2001086e-05, Final residual = 3.285459e-09, No Iterations 4
GAMG:  Solving for p, Initial residual = 0.00014233266, Final residual = 5.6454464e-07, No Iterations 7
GAMG:  Solving for p, Initial residual = 9.2511001e-06, Final residual = 5.4129909e-07, No Iterations 3
GAMG:  Solving for p, Initial residual = 2.18842e-06, Final residual = 1.373196e-07, No Iterations 3
time step continuity errors : sum local = 1.2228355e-10, global = -3.9931388e-12, cumulative = 3.9632173e-09
ExecutionTime = 13.05 s  ClockTime = 13 s

forceCoeffs forceCoeffs_object write:
    Cm    = -0.00018324491
    Cd    = 2.1805489
    Cl    = 0.00065689446
    Cl(f) = 0.00014520232
    Cl(r) = 0.00051169214

fieldMinMax minmaxdomain write:
    min(p) = -0.50247255 at location (0.1215826 -1.0270928 -2.6449118e-17)
    max(p) = 0.68834058 at location (-1.033408 -0.040619346 0)
    min(U) = (-0.020104243 -0.0034469848 -7.7910579e-20) at location (2.4139601 0.095040936 0)
    max(U) = (1.1574985 0.21893181 1.4347625e-19) at location (0.11532917 2.9286265 -1.9646976e-17)

Time = 353

DILUPBiCG:  Solving for Ux, Initial residual = 2.5233455e-05, Final residual = 1.8087607e-09, No Iterations 4
DILUPBiCG:  Solving for Uy, Initial residual = 7.087385e-05, Final residual = 3.2400237e-09, No Iterations 4
GAMG:  Solving for p, Initial residual = 0.00013919896, Final residual = 5.5403118e-07, No Iterations 7
GAMG:  Solving for p, Initial residual = 8.8942408e-06, Final residual = 5.1703827e-07, No Iterations 3
GAMG:  Solving for p, Initial residual = 2.094732e-06, Final residual = 1.3425887e-07, No Iterations 3
time step continuity errors : sum local = 1.1953054e-10, global = -4.7210174e-12, cumulative = 3.9584963e-09
ExecutionTime = 13.08 s  ClockTime = 13 s

forceCoeffs forceCoeffs_object write:
    Cm    = -0.00017470585
    Cd    = 2.1805396
    Cl    = 0.00055544171
    Cl(f) = 0.000103015
    Cl(r) = 0.0004524267

fieldMinMax minmaxdomain write:
    min(p) = -0.50247494 at location (0.1215826 -1.0270928 -2.6449118e-17)
    max(p) = 0.68834542 at location (-1.033408 -0.040619346 0)
    min(U) = (-0.02010373 -0.0034601912 -7.7908694e-20) at location (2.4139601 0.095040936 0)
    max(U) = (1.157479 0.21891845 1.4347224e-19) at location (0.11532917 2.9286265 -1.9646976e-17)

Time = 354

DILUPBiCG:  Solving for Ux, Initial residual = 2.4817001e-05, Final residual = 1.7653727e-09, No Iterations 4
DILUPBiCG:  Solving for Uy, Initial residual = 6.9792658e-05, Final residual = 3.1956006e-09, No Iterations 4
GAMG:  Solving for p, Initial residual = 0.00013611675, Final residual = 5.4489473e-07, No Iterations 7
GAMG:  Solving for p, Initial residual = 8.5455549e-06, Final residual = 4.9321422e-07, No Iterations 3
GAMG:  Solving for p, Initial residual = 2.002976e-06, Final residual = 1.3124879e-07, No Iterations 3
time step continuity errors : sum local = 1.168244e-10, global = -5.3724535e-12, cumulative = 3.9531238e-09
ExecutionTime = 13.12 s  ClockTime = 13 s

forceCoeffs forceCoeffs_object write:
    Cm    = -0.00016618728
    Cd    = 2.1805303
    Cl    = 0.00045651812
    Cl(f) = 6.2071776e-05
    Cl(r) = 0.00039444634

fieldMinMax minmaxdomain write:
    min(p) = -0.5024768 at location (0.1215826 -1.0270928 -2.6449118e-17)
    max(p) = 0.68835015 at location (-1.033408 -0.040619346 0)
    min(U) = (-0.020103135 -0.0034733399 -7.7906918e-20) at location (2.4139601 0.095040936 0)
    max(U) = (1.1574598 0.21890486 1.4346839e-19) at location (0.11532917 2.9286265 -1.9646976e-17)

Time = 355

DILUPBiCG:  Solving for Ux, Initial residual = 2.4405023e-05, Final residual = 1.7219416e-09, No Iterations 4
DILUPBiCG:  Solving for Uy, Initial residual = 6.875387e-05, Final residual = 3.1518002e-09, No Iterations 4
GAMG:  Solving for p, Initial residual = 0.0001330538, Final residual = 5.374972e-07, No Iterations 7
GAMG:  Solving for p, Initial residual = 8.2080041e-06, Final residual = 4.6996617e-07, No Iterations 3
GAMG:  Solving for p, Initial residual = 1.9132838e-06, Final residual = 1.2830944e-07, No Iterations 3
time step continuity errors : sum local = 1.1418289e-10, global = -5.9276587e-12, cumulative = 3.9471961e-09
ExecutionTime = 13.14 s  ClockTime = 13 s

forceCoeffs forceCoeffs_object write:
    Cm    = -0.00015770135
    Cd    = 2.1805213
    Cl    = 0.00036018749
    Cl(f) = 2.239239e-05
    Cl(r) = 0.0003377951

fieldMinMax minmaxdomain write:
    min(p) = -0.50247812 at location (0.1215826 -1.0270928 -2.6449118e-17)
    max(p) = 0.68835477 at location (-1.033408 -0.040619346 0)
    min(U) = (-0.020102461 -0.0034864132 -7.7905246e-20) at location (2.4139601 0.095040936 0)
    max(U) = (1.1574409 0.21889108 1.434647e-19) at location (0.11532917 2.9286265 -1.9646976e-17)

Time = 356

DILUPBiCG:  Solving for Ux, Initial residual = 2.3996101e-05, Final residual = 1.678364e-09, No Iterations 4
DILUPBiCG:  Solving for Uy, Initial residual = 6.7753376e-05, Final residual = 3.1087162e-09, No Iterations 4
GAMG:  Solving for p, Initial residual = 0.00012999291, Final residual = 9.9137047e-07, No Iterations 6
GAMG:  Solving for p, Initial residual = 8.2029911e-06, Final residual = 5.2529879e-07, No Iterations 3
GAMG:  Solving for p, Initial residual = 1.9236243e-06, Final residual = 1.38157e-07, No Iterations 3
time step continuity errors : sum local = 1.2292001e-10, global = -6.0530013e-12, cumulative = 3.9411431e-09
ExecutionTime = 13.17 s  ClockTime = 13 s

forceCoeffs forceCoeffs_object write:
    Cm    = -0.00014925975
    Cd    = 2.1805125
    Cl    = 0.00026650223
    Cl(f) = -1.6008635e-05
    Cl(r) = 0.00028251087

fieldMinMax minmaxdomain write:
    min(p) = -0.50247889 at location (0.1215826 -1.0270928 -2.6449118e-17)
    max(p) = 0.68835929 at location (-1.033408 -0.040619346 0)
    min(U) = (-0.02010171 -0.0034993938 -7.7903677e-20) at location (2.4139601 0.095040936 0)
    max(U) = (1.1574223 0.21887714 1.4346115e-19) at location (0.11532917 2.9286265 -1.9646976e-17)

Time = 357

DILUPBiCG:  Solving for Ux, Initial residual = 2.3587679e-05, Final residual = 1.6347174e-09, No Iterations 4
DILUPBiCG:  Solving for Uy, Initial residual = 6.6787404e-05, Final residual = 3.0662337e-09, No Iterations 4
GAMG:  Solving for p, Initial residual = 0.00012691856, Final residual = 9.7751188e-07, No Iterations 6
GAMG:  Solving for p, Initial residual = 7.8902227e-06, Final residual = 5.0216446e-07, No Iterations 3
GAMG:  Solving for p, Initial residual = 1.8392861e-06, Final residual = 1.3511749e-07, No Iterations 3
time step continuity errors : sum local = 1.2019015e-10, global = -6.2451056e-12, cumulative = 3.934898e-09
ExecutionTime = 13.19 s  ClockTime = 13 s

forceCoeffs forceCoeffs_object write:
    Cm    = -0.00014087371
    Cd    = 2.1805038
    Cl    = 0.00017553231
    Cl(f) = -5.3107558e-05
    Cl(r) = 0.00022863987

fieldMinMax minmaxdomain write:
    min(p) = -0.50247912 at location (0.1215826 -1.0270928 -2.6449118e-17)
    max(p) = 0.68836372 at location (-1.033408 -0.040619346 0)
    min(U) = (-0.020100885 -0.0035122653 -7.7902206e-20) at location (2.4139601 0.095040936 0)
    max(U) = (1.1574041 0.21886306 1.4345775e-19) at location (0.11532917 2.9286265 -1.9646976e-17)

Time = 358

DILUPBiCG:  Solving for Ux, Initial residual = 2.3179548e-05, Final residual = 1.5911269e-09, No Iterations 4
DILUPBiCG:  Solving for Uy, Initial residual = 6.5852478e-05, Final residual = 3.0242244e-09, No Iterations 4
GAMG:  Solving for p, Initial residual = 0.00012387307, Final residual = 9.6588829e-07, No Iterations 6
GAMG:  Solving for p, Initial residual = 7.5897306e-06, Final residual = 4.8028857e-07, No Iterations 3
GAMG:  Solving for p, Initial residual = 1.758827e-06, Final residual = 1.3286054e-07, No Iterations 3
time step continuity errors : sum local = 1.1815789e-10, global = -6.3272657e-12, cumulative = 3.9285708e-09
ExecutionTime = 13.21 s  ClockTime = 13 s

forceCoeffs forceCoeffs_object write:
    Cm    = -0.00013255401
    Cd    = 2.1804953
    Cl    = 8.7321539e-05
    Cl(f) = -8.8893238e-05
    Cl(r) = 0.00017621478

fieldMinMax minmaxdomain write:
    min(p) = -0.50247881 at location (0.1215826 -1.0270928 -2.6449118e-17)
    max(p) = 0.68836805 at location (-1.033408 -0.040619346 0)
    min(U) = (-0.020099989 -0.0035250119 -7.790083e-20) at location (2.4139601 0.095040936 0)
    max(U) = (1.1573863 0.21884888 1.4345451e-19) at location (0.11532917 2.9286265 -1.9646976e-17)

Time = 359

DILUPBiCG:  Solving for Ux, Initial residual = 2.2771358e-05, Final residual = 1.5476121e-09, No Iterations 4
DILUPBiCG:  Solving for Uy, Initial residual = 6.4946072e-05, Final residual = 2.9825504e-09, No Iterations 4
GAMG:  Solving for p, Initial residual = 0.00012085692, Final residual = 9.5675247e-07, No Iterations 6
GAMG:  Solving for p, Initial residual = 7.3016724e-06, Final residual = 4.5996245e-07, No Iterations 3
GAMG:  Solving for p, Initial residual = 1.6830903e-06, Final residual = 1.3154091e-07, No Iterations 3
time step continuity errors : sum local = 1.1696038e-10, global = -6.3123135e-12, cumulative = 3.9222585e-09
ExecutionTime = 13.24 s  ClockTime = 13 s

forceCoeffs forceCoeffs_object write:
    Cm    = -0.00012431095
    Cd    = 2.1804869
    Cl    = 1.9032497e-06
    Cl(f) = -0.00012335933
    Cl(r) = 0.00012526257

fieldMinMax minmaxdomain write:
    min(p) = -0.50247796 at location (0.1215826 -1.0270928 -2.6449118e-17)
    max(p) = 0.6883723 at location (-1.033408 -0.040619346 0)
    min(U) = (-0.020099024 -0.0035376183 -7.7899547e-20) at location (2.4139601 0.095040936 0)
    max(U) = (1.1573689 0.21883462 1.4345141e-19) at location (0.11532917 2.9286265 -1.9646976e-17)

Time = 360

DILUPBiCG:  Solving for Ux, Initial residual = 2.2362991e-05, Final residual = 1.5039746e-09, No Iterations 4
DILUPBiCG:  Solving for Uy, Initial residual = 6.4064328e-05, Final residual = 2.9415405e-09, No Iterations 4
GAMG:  Solving for p, Initial residual = 0.00011787222, Final residual = 9.5387877e-07, No Iterations 6
GAMG:  Solving for p, Initial residual = 7.0292299e-06, Final residual = 4.4099091e-07, No Iterations 3
GAMG:  Solving for p, Initial residual = 1.6119807e-06, Final residual = 1.3164695e-07, No Iterations 3
time step continuity errors : sum local = 1.1703121e-10, global = -6.2302418e-12, cumulative = 3.9160282e-09
ExecutionTime = 13.27 s  ClockTime = 13 s

forceCoeffs forceCoeffs_object write:
    Cm    = -0.0001161544
    Cd    = 2.1804788
    Cl    = -8.0690637e-05
    Cl(f) = -0.00015649972
    Cl(r) = 7.5809086e-05

fieldMinMax minmaxdomain write:
    min(p) = -0.50247659 at location (0.1215826 -1.0270928 -2.6449118e-17)
    max(p) = 0.68837646 at location (-1.033408 -0.040619346 0)
    min(U) = (-0.020097994 -0.0035500703 -7.7898351e-20) at location (2.4139601 0.095040936 0)
    max(U) = (1.1573518 0.21882031 1.4344846e-19) at location (0.11532917 2.9286265 -1.9646976e-17)

Time = 361

DILUPBiCG:  Solving for Ux, Initial residual = 2.1955974e-05, Final residual = 1.4603516e-09, No Iterations 4
DILUPBiCG:  Solving for Uy, Initial residual = 6.3203824e-05, Final residual = 2.9011382e-09, No Iterations 4
GAMG:  Solving for p, Initial residual = 0.00011490132, Final residual = 9.5964787e-07, No Iterations 6
GAMG:  Solving for p, Initial residual = 6.775462e-06, Final residual = 4.2366523e-07, No Iterations 3
GAMG:  Solving for p, Initial residual = 1.5453293e-06, Final residual = 1.3243349e-07, No Iterations 3
time step continuity errors : sum local = 1.1770726e-10, global = -6.0997055e-12, cumulative = 3.9099285e-09
ExecutionTime = 13.29 s  ClockTime = 13 s

forceCoeffs forceCoeffs_object write:
    Cm    = -0.00010809377
    Cd    = 2.1804707
    Cl    = -0.00016042728
    Cl(f) = -0.00018830741
    Cl(r) = 2.7880136e-05

fieldMinMax minmaxdomain write:
    min(p) = -0.50247469 at location (0.1215826 -1.0270928 -2.6449118e-17)
    max(p) = 0.68838054 at location (-1.033408 -0.040619346 0)
    min(U) = (-0.0200969 -0.0035623544 -7.7897242e-20) at location (2.4139601 0.095040936 0)
    max(U) = (1.1573351 0.21880598 1.4344566e-19) at location (0.11532917 2.9286265 -1.9646976e-17)

Time = 362

DILUPBiCG:  Solving for Ux, Initial residual = 2.1550327e-05, Final residual = 1.4167655e-09, No Iterations 4
DILUPBiCG:  Solving for Uy, Initial residual = 6.2361739e-05, Final residual = 2.8612387e-09, No Iterations 4
GAMG:  Solving for p, Initial residual = 0.00011193143, Final residual = 9.7056817e-07, No Iterations 6
GAMG:  Solving for p, Initial residual = 6.5410278e-06, Final residual = 4.0913622e-07, No Iterations 3
GAMG:  Solving for p, Initial residual = 1.485032e-06, Final residual = 1.3252446e-07, No Iterations 3
time step continuity errors : sum local = 1.1776534e-10, global = -5.9368694e-12, cumulative = 3.9039916e-09
ExecutionTime = 13.32 s  ClockTime = 13 s

forceCoeffs forceCoeffs_object write:
    Cm    = -0.00010013801
    Cd    = 2.1804629
    Cl    = -0.00023727729
    Cl(f) = -0.00021877665
    Cl(r) = -1.8500642e-05

fieldMinMax minmaxdomain write:
    min(p) = -0.50247227 at location (0.1215826 -1.0270928 -2.6449118e-17)
    max(p) = 0.68838454 at location (-1.033408 -0.040619346 0)
    min(U) = (-0.020095747 -0.0035744575 -7.7896214e-20) at location (2.4139601 0.095040936 0)
    max(U) = (1.1573189 0.21879166 1.43443e-19) at location (0.11532917 2.9286265 -1.9646976e-17)

Time = 363

DILUPBiCG:  Solving for Ux, Initial residual = 2.1144536e-05, Final residual = 1.3732651e-09, No Iterations 4
DILUPBiCG:  Solving for Uy, Initial residual = 6.1536768e-05, Final residual = 2.8219086e-09, No Iterations 4
GAMG:  Solving for p, Initial residual = 0.00010897959, Final residual = 9.8374031e-07, No Iterations 6
GAMG:  Solving for p, Initial residual = 6.3278178e-06, Final residual = 4.0110994e-07, No Iterations 3
GAMG:  Solving for p, Initial residual = 1.4354555e-06, Final residual = 1.31642e-07, No Iterations 3
time step continuity errors : sum local = 1.1695899e-10, global = -5.7449364e-12, cumulative = 3.8982467e-09
ExecutionTime = 13.35 s  ClockTime = 13 s

forceCoeffs forceCoeffs_object write:
    Cm    = -9.2295583e-05
    Cd    = 2.1804551
    Cl    = -0.00031121951
    Cl(f) = -0.00024790534
    Cl(r) = -6.3314171e-05

fieldMinMax minmaxdomain write:
    min(p) = -0.50246934 at location (0.1215826 -1.0270928 -2.6449118e-17)
    max(p) = 0.68838848 at location (-1.033408 -0.040619346 0)
    min(U) = (-0.020094536 -0.0035863674 -7.7895264e-20) at location (2.4139601 0.095040936 0)
    max(U) = (1.157303 0.21877735 1.4344049e-19) at location (0.11532917 2.9286265 -1.9646976e-17)

Time = 364

DILUPBiCG:  Solving for Ux, Initial residual = 2.0739769e-05, Final residual = 1.3299318e-09, No Iterations 4
DILUPBiCG:  Solving for Uy, Initial residual = 6.0723986e-05, Final residual = 2.7830038e-09, No Iterations 4
GAMG:  Solving for p, Initial residual = 0.00010604453, Final residual = 9.9755221e-07, No Iterations 6
GAMG:  Solving for p, Initial residual = 6.1303075e-06, Final residual = 3.9918899e-07, No Iterations 3
GAMG:  Solving for p, Initial residual = 1.3928684e-06, Final residual = 1.2990741e-07, No Iterations 3
time step continuity errors : sum local = 1.153964e-10, global = -5.5398945e-12, cumulative = 3.8927068e-09
ExecutionTime = 13.38 s  ClockTime = 13 s

forceCoeffs forceCoeffs_object write:
    Cm    = -8.4574542e-05
    Cd    = 2.1804476
    Cl    = -0.00038224119
    Cl(f) = -0.00027569514
    Cl(r) = -0.00010654605

fieldMinMax minmaxdomain write:
    min(p) = -0.5024659 at location (0.1215826 -1.0270928 -2.6449118e-17)
    max(p) = 0.68839234 at location (-1.033408 -0.040619346 0)
    min(U) = (-0.020093271 -0.0035980725 -7.7894391e-20) at location (2.4139601 0.095040936 0)
    max(U) = (1.1572876 0.2187631 1.4343811e-19) at location (0.11532917 2.9286265 -1.9646976e-17)

Time = 365

DILUPBiCG:  Solving for Ux, Initial residual = 2.0333939e-05, Final residual = 1.2866923e-09, No Iterations 4
DILUPBiCG:  Solving for Uy, Initial residual = 5.9923354e-05, Final residual = 2.7447066e-09, No Iterations 4
GAMG:  Solving for p, Initial residual = 0.00010315837, Final residual = 5.7604513e-07, No Iterations 7
GAMG:  Solving for p, Initial residual = 5.6372101e-06, Final residual = 3.0938137e-07, No Iterations 3
GAMG:  Solving for p, Initial residual = 1.2404507e-06, Final residual = 1.1827005e-07, No Iterations 3
time step continuity errors : sum local = 1.0503967e-10, global = -7.4461361e-12, cumulative = 3.8852607e-09
ExecutionTime = 13.4 s  ClockTime = 13 s

forceCoeffs forceCoeffs_object write:
    Cm    = -7.6982469e-05
    Cd    = 2.1804402
    Cl    = -0.00045033241
    Cl(f) = -0.00030214867
    Cl(r) = -0.00014818373

fieldMinMax minmaxdomain write:
    min(p) = -0.50246197 at location (0.1215826 -1.0270928 -2.6449118e-17)
    max(p) = 0.68839614 at location (-1.033408 -0.040619346 0)
    min(U) = (-0.020091955 -0.0036095619 -7.789359e-20) at location (2.4139601 0.095040936 0)
    max(U) = (1.1572726 0.21874892 1.4343588e-19) at location (0.11532917 2.9286265 -1.9646976e-17)

Time = 366

DILUPBiCG:  Solving for Ux, Initial residual = 1.9930985e-05, Final residual = 1.2435679e-09, No Iterations 4
DILUPBiCG:  Solving for Uy, Initial residual = 5.913357e-05, Final residual = 2.7071126e-09, No Iterations 4
GAMG:  Solving for p, Initial residual = 0.0001003948, Final residual = 5.789509e-07, No Iterations 7
GAMG:  Solving for p, Initial residual = 5.4635406e-06, Final residual = 3.0804853e-07, No Iterations 3
GAMG:  Solving for p, Initial residual = 1.2031543e-06, Final residual = 1.167716e-07, No Iterations 3
time step continuity errors : sum local = 1.0369031e-10, global = -7.410335e-12, cumulative = 3.8778503e-09
ExecutionTime = 13.43 s  ClockTime = 13 s

forceCoeffs forceCoeffs_object write:
    Cm    = -6.9526502e-05
    Cd    = 2.1804329
    Cl    = -0.00051549474
    Cl(f) = -0.00032727387
    Cl(r) = -0.00018822087

fieldMinMax minmaxdomain write:
    min(p) = -0.50245755 at location (0.1215826 -1.0270928 -2.6449118e-17)
    max(p) = 0.68839988 at location (-1.033408 -0.040619346 0)
    min(U) = (-0.02009059 -0.0036208255 -7.7892858e-20) at location (2.4139601 0.095040936 0)
    max(U) = (1.1572581 0.21873483 1.4343378e-19) at location (0.11532917 2.9286265 -1.9646976e-17)

Time = 367

DILUPBiCG:  Solving for Ux, Initial residual = 1.9528515e-05, Final residual = 1.2006271e-09, No Iterations 4
DILUPBiCG:  Solving for Uy, Initial residual = 5.8349519e-05, Final residual = 2.6703014e-09, No Iterations 4
GAMG:  Solving for p, Initial residual = 9.7695534e-05, Final residual = 5.8032789e-07, No Iterations 7
GAMG:  Solving for p, Initial residual = 5.3043785e-06, Final residual = 3.0887852e-07, No Iterations 3
GAMG:  Solving for p, Initial residual = 1.168683e-06, Final residual = 1.1476133e-07, No Iterations 3
time step continuity errors : sum local = 1.018874e-10, global = -7.3626283e-12, cumulative = 3.8704877e-09
ExecutionTime = 13.45 s  ClockTime = 13 s


SIMPLE solution converged in 367 iterations

forceCoeffs forceCoeffs_object write:
    Cm    = -6.221334e-05
    Cd    = 2.1804258
    Cl    = -0.00057772394
    Cl(f) = -0.00035107531
    Cl(r) = -0.00022664863

fieldMinMax minmaxdomain write:
    min(p) = -0.50245265 at location (0.1215826 -1.0270928 -2.6449118e-17)
    max(p) = 0.68840355 at location (-1.033408 -0.040619346 0)
    min(U) = (-0.020089179 -0.0036318538 -7.7892192e-20) at location (2.4139601 0.095040936 0)
    max(U) = (1.157244 0.21872086 1.4343181e-19) at location (0.11532917 2.9286265 -1.9646976e-17)

End

