/*---------------------------------------------------------------------------*\
| =========                 |                                                 |
| \\      /  F ield         | OpenFOAM: The Open Source CFD Toolbox           |
|  \\    /   O peration     | Version:  3.0.x                                 |
|   \\  /    A nd           | Web:      www.OpenFOAM.org                      |
|    \\/     M anipulation  |                                                 |
\*---------------------------------------------------------------------------*/
Build  : 3.0.x-5b548639bc6e
Exec   : icoFoam
Date   : Jun 16 2016
Time   : 18:09:50
Host   : "dagobah"
PID    : 9478
Case   : /home/joegi/OpenFOAM/of_courses/2016a/of_course_tutorials/30x/101Linear_SOLVERS/pipe_icoFoam
nProcs : 1
sigFpe : Enabling floating point exception trapping (FOAM_SIGFPE).
fileModificationChecking : Monitoring run-time modified files using timeStampMaster
allowSystemOperations : Allowing user-supplied system call operations

// * * * * * * * * * * * * * * * * * * * * * * * * * * * * * * * * * * * * * //
Create time

Create mesh for time = 0


PISO: Operating solver in PISO mode

Reading transportProperties

Reading field p

Reading field U

Reading/calculating face flux field phi


Starting time loop

Time = 0.0005

Courant Number mean: 0 max: 0
smoothSolver:  Solving for Ux, Initial residual = 0, Final residual = 0, No Iterations 0
smoothSolver:  Solving for Uy, Initial residual = 0, Final residual = 0, No Iterations 0
smoothSolver:  Solving for Uz, Initial residual = 1, Final residual = 4.7897449e-09, No Iterations 15
GAMG:  Solving for p, Initial residual = 1, Final residual = 0.009906539, No Iterations 476
GAMG:  Solving for p, Initial residual = 0.00013989617, Final residual = 1.3942148e-06, No Iterations 280
time step continuity errors : sum local = 6.7050177e-07, global = -5.6177986e-08, cumulative = -5.6177986e-08
GAMG:  Solving for p, Initial residual = 0.004268146, Final residual = 4.2136231e-05, No Iterations 476
GAMG:  Solving for p, Initial residual = 0.00029357596, Final residual = 9.9269216e-07, No Iterations 340
time step continuity errors : sum local = 1.8377942e-07, global = 1.5741912e-08, cumulative = -4.0436074e-08
ExecutionTime = 7.22 s  ClockTime = 7 s

fieldMinMax minmaxdomain output:
    min(p) = 0 at location (-0.000525 0 0.216)
    max(p) = 706.29542 at location (-0.00014395116 -0.0014503614 0.0015)
    min(U) = (-0.0095527779 -0.00041395769 0.35053071) at location (0.0014503614 -0.00014395116 0.0015)
    max(U) = (0.00020126432 0.028489665 0.83281085) at location (-0.00011538917 -0.0012080729 0.0015)

Time = 0.001

Courant Number mean: 0.2386533 max: 0.39452178
smoothSolver:  Solving for Ux, Initial residual = 0.35127555, Final residual = 3.6753641e-09, No Iterations 13
smoothSolver:  Solving for Uy, Initial residual = 0.35141516, Final residual = 5.0564276e-09, No Iterations 13
smoothSolver:  Solving for Uz, Initial residual = 0.60026846, Final residual = 9.4695836e-09, No Iterations 14
GAMG:  Solving for p, Initial residual = 0.019548413, Final residual = 0.00019414206, No Iterations 470
GAMG:  Solving for p, Initial residual = 0.00041649768, Final residual = 4.0943446e-06, No Iterations 248
time step continuity errors : sum local = 1.0968218e-06, global = 8.8669844e-08, cumulative = 4.823377e-08
GAMG:  Solving for p, Initial residual = 0.0077740709, Final residual = 7.5588838e-05, No Iterations 474
GAMG:  Solving for p, Initial residual = 0.0096428119, Final residual = 9.8405248e-07, No Iterations 568
time step continuity errors : sum local = 8.5548699e-09, global = -7.6140535e-10, cumulative = 4.7472365e-08
ExecutionTime = 15.02 s  ClockTime = 15 s

fieldMinMax minmaxdomain output:
    min(p) = 0 at location (-0.000525 0 0.216)
    max(p) = 29.143667 at location (0.0011227589 -0.00092118364 0.0015)
    min(U) = (-0.012561644 0.0014350615 0.3233251) at location (0.0014503614 -0.00014395116 0.0015)
    max(U) = (0.0044212467 0.043110128 1.0305284) at location (-0.00011538917 -0.0012080729 0.0015)

Time = 0.0015

Courant Number mean: 0.23990272 max: 0.47644311
smoothSolver:  Solving for Ux, Initial residual = 0.17396267, Final residual = 3.0072425e-09, No Iterations 13
smoothSolver:  Solving for Uy, Initial residual = 0.17411107, Final residual = 4.1985845e-09, No Iterations 13
smoothSolver:  Solving for Uz, Initial residual = 0.070500561, Final residual = 5.8848407e-09, No Iterations 12
GAMG:  Solving for p, Initial residual = 0.059395877, Final residual = 0.00058948737, No Iterations 278
GAMG:  Solving for p, Initial residual = 0.0040414883, Final residual = 4.021564e-05, No Iterations 162
time step continuity errors : sum local = 4.942239e-07, global = -3.3826218e-08, cumulative = 1.3646147e-08
GAMG:  Solving for p, Initial residual = 0.017457572, Final residual = 0.00017066064, No Iterations 306
GAMG:  Solving for p, Initial residual = 0.0027581158, Final residual = 9.8916467e-07, No Iterations 378
time step continuity errors : sum local = 9.8739704e-09, global = 7.7936152e-10, cumulative = 1.4425508e-08
ExecutionTime = 20.79 s  ClockTime = 21 s

fieldMinMax minmaxdomain output:
    min(p) = 0 at location (-0.000525 0 0.216)
    max(p) = 35.918991 at location (-0.00014395116 -0.0014503614 0.0015)
    min(U) = (-0.00017489099 -0.00014654409 0.25017283) at location (-0.00014395116 -0.0014503614 0.0075)
    max(U) = (0.0054355556 0.051048171 1.1011833) at location (-0.00011538917 -0.0012080729 0.0015)

Time = 0.002

Courant Number mean: 0.24035995 max: 0.51470425
smoothSolver:  Solving for Ux, Initial residual = 0.070519391, Final residual = 3.5703513e-09, No Iterations 12
smoothSolver:  Solving for Uy, Initial residual = 0.070608795, Final residual = 4.8657623e-09, No Iterations 12
smoothSolver:  Solving for Uz, Initial residual = 0.046076226, Final residual = 6.5479559e-09, No Iterations 12
GAMG:  Solving for p, Initial residual = 0.013413639, Final residual = 0.00013350174, No Iterations 352
GAMG:  Solving for p, Initial residual = 0.0011958158, Final residual = 1.1725084e-05, No Iterations 198
time step continuity errors : sum local = 7.945285e-08, global = 5.8909071e-09, cumulative = 2.0316415e-08
GAMG:  Solving for p, Initial residual = 0.0077936869, Final residual = 7.5741179e-05, No Iterations 384
GAMG:  Solving for p, Initial residual = 0.00045466196, Final residual = 9.8926569e-07, No Iterations 292
time step continuity errors : sum local = 8.5563141e-09, global = -6.7791851e-10, cumulative = 1.9638497e-08
ExecutionTime = 27.14 s  ClockTime = 27 s

fieldMinMax minmaxdomain output:
    min(p) = 0 at location (-0.000525 0 0.216)
    max(p) = 31.017149 at location (-0.0014503614 -0.00014395116 0.0015)
    min(U) = (-0.00015689386 -0.00015527527 0.21550371) at location (-0.00014395116 -0.0014503614 0.0075)
    max(U) = (0.0060970124 0.056412329 1.2197148) at location (-0.00010410186 -0.0011123239 0.0015)

Time = 0.0025

Courant Number mean: 0.24071579 max: 0.53885597
smoothSolver:  Solving for Ux, Initial residual = 0.05058383, Final residual = 3.2763208e-09, No Iterations 12
smoothSolver:  Solving for Uy, Initial residual = 0.050590944, Final residual = 4.5405371e-09, No Iterations 12
smoothSolver:  Solving for Uz, Initial residual = 0.032539848, Final residual = 5.0947437e-09, No Iterations 12
GAMG:  Solving for p, Initial residual = 0.0081510504, Final residual = 8.0994056e-05, No Iterations 354
GAMG:  Solving for p, Initial residual = 0.00070986458, Final residual = 7.0844544e-06, No Iterations 188
time step continuity errors : sum local = 4.8564973e-08, global = 3.5821226e-09, cumulative = 2.3220619e-08
GAMG:  Solving for p, Initial residual = 0.0029477802, Final residual = 2.9125056e-05, No Iterations 408
GAMG:  Solving for p, Initial residual = 0.0003118118, Final residual = 9.7681642e-07, No Iterations 232
time step continuity errors : sum local = 7.7290935e-09, global = -6.0174012e-10, cumulative = 2.2618879e-08
ExecutionTime = 33.16 s  ClockTime = 33 s

fieldMinMax minmaxdomain output:
    min(p) = 0 at location (-0.000525 0 0.216)
    max(p) = 28.37152 at location (0.00014395116 0.0014503614 0.0015)
    min(U) = (-0.00013673117 -0.00014195203 0.19570959) at location (-0.00014395116 -0.0014503614 0.0075)
    max(U) = (0.0065257454 0.060862647 1.2510291) at location (-0.00010410186 -0.0011123239 0.0015)

Time = 0.003

Courant Number mean: 0.24098728 max: 0.55455798
smoothSolver:  Solving for Ux, Initial residual = 0.037468058, Final residual = 9.0059646e-09, No Iterations 11
smoothSolver:  Solving for Uy, Initial residual = 0.037469671, Final residual = 3.4855312e-09, No Iterations 12
smoothSolver:  Solving for Uz, Initial residual = 0.025182497, Final residual = 4.2625609e-09, No Iterations 12
GAMG:  Solving for p, Initial residual = 0.0051227812, Final residual = 5.0194484e-05, No Iterations 368
GAMG:  Solving for p, Initial residual = 0.00037870241, Final residual = 3.7076331e-06, No Iterations 196
time step continuity errors : sum local = 2.4761806e-08, global = 1.852179e-09, cumulative = 2.4471058e-08
GAMG:  Solving for p, Initial residual = 0.001573632, Final residual = 1.5579294e-05, No Iterations 428
GAMG:  Solving for p, Initial residual = 0.00017188138, Final residual = 9.8129561e-07, No Iterations 190
time step continuity errors : sum local = 7.2711113e-09, global = -5.5983741e-10, cumulative = 2.3911221e-08
ExecutionTime = 39.2 s  ClockTime = 39 s

fieldMinMax minmaxdomain output:
    min(p) = 0 at location (-0.000525 0 0.216)
    max(p) = 26.55532 at location (0.00014395116 0.0014503614 0.0015)
    min(U) = (-0.00012066276 -0.00012045569 0.18277683) at location (-0.00014395116 -0.0014503614 0.0075)
    max(U) = (0.0068078493 0.064004272 1.2712287) at location (-0.00010410186 -0.0011123239 0.0015)

Time = 0.0035

Courant Number mean: 0.24120836 max: 0.56726464
smoothSolver:  Solving for Ux, Initial residual = 0.030029952, Final residual = 7.5632959e-09, No Iterations 11
smoothSolver:  Solving for Uy, Initial residual = 0.030030453, Final residual = 2.9393984e-09, No Iterations 12
smoothSolver:  Solving for Uz, Initial residual = 0.020129729, Final residual = 3.6668693e-09, No Iterations 12
GAMG:  Solving for p, Initial residual = 0.0036901576, Final residual = 3.6260151e-05, No Iterations 374
GAMG:  Solving for p, Initial residual = 0.00030506791, Final residual = 2.979383e-06, No Iterations 186
time step continuity errors : sum local = 1.9369773e-08, global = 1.4456416e-09, cumulative = 2.5356862e-08
GAMG:  Solving for p, Initial residual = 0.0011393827, Final residual = 1.1160378e-05, No Iterations 432
GAMG:  Solving for p, Initial residual = 0.00014070544, Final residual = 9.7597627e-07, No Iterations 168
time step continuity errors : sum local = 6.8716309e-09, global = -5.2415687e-10, cumulative = 2.4832705e-08
ExecutionTime = 45.24 s  ClockTime = 46 s

fieldMinMax minmaxdomain output:
    min(p) = 0 at location (-0.000525 0 0.216)
    max(p) = 25.228444 at location (0.00014395116 0.0014503614 0.0015)
    min(U) = (-0.00010858853 -9.7310995e-05 0.17371618) at location (-0.00014395116 -0.0014503614 0.0075)
    max(U) = (0.0069958196 0.066211822 1.2854722) at location (-0.00010410186 -0.0011123239 0.0015)

Time = 0.004

Courant Number mean: 0.24140002 max: 0.57717821
smoothSolver:  Solving for Ux, Initial residual = 0.024733471, Final residual = 6.4266192e-09, No Iterations 11
smoothSolver:  Solving for Uy, Initial residual = 0.024733204, Final residual = 8.9572901e-09, No Iterations 11
smoothSolver:  Solving for Uz, Initial residual = 0.016424654, Final residual = 3.2009498e-09, No Iterations 12
GAMG:  Solving for p, Initial residual = 0.0028158562, Final residual = 2.7792719e-05, No Iterations 378
GAMG:  Solving for p, Initial residual = 0.00023668714, Final residual = 2.3589462e-06, No Iterations 182
time step continuity errors : sum local = 1.4959841e-08, global = 1.1165948e-09, cumulative = 2.59493e-08
GAMG:  Solving for p, Initial residual = 0.0008849536, Final residual = 8.8274897e-06, No Iterations 432
GAMG:  Solving for p, Initial residual = 0.00011188877, Final residual = 9.8108378e-07, No Iterations 152
time step continuity errors : sum local = 6.6297888e-09, global = -5.0135844e-10, cumulative = 2.5447942e-08
ExecutionTime = 50.73 s  ClockTime = 51 s

fieldMinMax minmaxdomain output:
    min(p) = 0 at location (-0.000525 0 0.216)
    max(p) = 24.213993 at location (0.00014395116 0.0014503614 0.0015)
    min(U) = (-9.9733662e-05 -7.4625145e-05 0.16712464) at location (-0.00014395116 -0.0014503614 0.0075)
    max(U) = (0.0071211698 0.067750946 1.296284) at location (-0.00010410186 -0.0011123239 0.0015)

Time = 0.0045

Courant Number mean: 0.24157938 max: 0.58402455
smoothSolver:  Solving for Ux, Initial residual = 0.020826148, Final residual = 5.6455428e-09, No Iterations 11
smoothSolver:  Solving for Uy, Initial residual = 0.020825904, Final residual = 7.9729791e-09, No Iterations 11
smoothSolver:  Solving for Uz, Initial residual = 0.013691239, Final residual = 9.3074451e-09, No Iterations 11
GAMG:  Solving for p, Initial residual = 0.0022805678, Final residual = 2.2382599e-05, No Iterations 380
GAMG:  Solving for p, Initial residual = 0.00018944986, Final residual = 1.8672943e-06, No Iterations 182
time step continuity errors : sum local = 1.1582604e-08, global = 8.6559716e-10, cumulative = 2.6313539e-08
GAMG:  Solving for p, Initial residual = 0.00074518802, Final residual = 7.3887776e-06, No Iterations 430
GAMG:  Solving for p, Initial residual = 9.079875e-05, Final residual = 9.8282121e-07, No Iterations 140
time step continuity errors : sum local = 6.4212489e-09, global = -4.8186659e-10, cumulative = 2.5831672e-08
ExecutionTime = 56.41 s  ClockTime = 57 s

fieldMinMax minmaxdomain output:
    min(p) = 0 at location (-0.000525 0 0.216)
    max(p) = 23.413509 at location (0.00014395116 0.0014503614 0.0015)
    min(U) = (-9.3065097e-05 -5.3781181e-05 0.16223943) at location (-0.00014395116 -0.0014503614 0.0075)
    max(U) = (0.0072047908 0.068814426 1.3049359) at location (-0.00010410186 -0.0011123239 0.0015)

Time = 0.005

Courant Number mean: 0.24174015 max: 0.58872447
smoothSolver:  Solving for Ux, Initial residual = 0.017776952, Final residual = 5.0694954e-09, No Iterations 11
smoothSolver:  Solving for Uy, Initial residual = 0.017777133, Final residual = 7.1791532e-09, No Iterations 11
smoothSolver:  Solving for Uz, Initial residual = 0.011627541, Final residual = 8.268931e-09, No Iterations 11
GAMG:  Solving for p, Initial residual = 0.0019101903, Final residual = 1.884736e-05, No Iterations 380
GAMG:  Solving for p, Initial residual = 0.00015527321, Final residual = 1.5506675e-06, No Iterations 182
time step continuity errors : sum local = 9.4317539e-09, global = 7.050097e-10, cumulative = 2.6536682e-08
GAMG:  Solving for p, Initial residual = 0.00065772358, Final residual = 6.495181e-06, No Iterations 426
GAMG:  Solving for p, Initial residual = 7.5316296e-05, Final residual = 9.7464618e-07, No Iterations 132
time step continuity errors : sum local = 6.1903899e-09, global = -4.6147117e-10, cumulative = 2.6075211e-08
ExecutionTime = 62.38 s  ClockTime = 63 s

fieldMinMax minmaxdomain output:
    min(p) = 0 at location (-0.000525 0 0.216)
    max(p) = 22.766752 at location (0.00014395116 0.0014503614 0.0015)
    min(U) = (-8.8358147e-05 -3.6721089e-05 0.15860064) at location (-0.00014395116 -0.0014503614 0.0075)
    max(U) = (0.0072606135 0.069541799 1.3120598) at location (-0.00010410186 -0.0011123239 0.0015)

Time = 0.0055

Courant Number mean: 0.24188277 max: 0.59192612
smoothSolver:  Solving for Ux, Initial residual = 0.01531477, Final residual = 4.5095719e-09, No Iterations 11
smoothSolver:  Solving for Uy, Initial residual = 0.015315067, Final residual = 6.4170975e-09, No Iterations 11
smoothSolver:  Solving for Uz, Initial residual = 0.010023007, Final residual = 7.3810372e-09, No Iterations 11
GAMG:  Solving for p, Initial residual = 0.0016210591, Final residual = 1.6071655e-05, No Iterations 380
GAMG:  Solving for p, Initial residual = 0.00012755972, Final residual = 1.2724586e-06, No Iterations 184
time step continuity errors : sum local = 7.6065191e-09, global = 5.6934288e-10, cumulative = 2.6644554e-08
GAMG:  Solving for p, Initial residual = 0.00059063987, Final residual = 5.7994803e-06, No Iterations 422
GAMG:  Solving for p, Initial residual = 6.2862601e-05, Final residual = 9.7928358e-07, No Iterations 124
time step continuity errors : sum local = 6.0722901e-09, global = -4.4966094e-10, cumulative = 2.6194893e-08
ExecutionTime = 68.22 s  ClockTime = 69 s

fieldMinMax minmaxdomain output:
    min(p) = 0 at location (-0.000525 0 0.216)
    max(p) = 22.234468 at location (0.00014395116 0.0014503614 0.0015)
    min(U) = (-8.5162035e-05 -2.133281e-05 0.15590355) at location (-0.00014395116 -0.0014503614 0.0075)
    max(U) = (0.0072979689 0.070033955 1.3179756) at location (-0.00010410186 -0.0011123239 0.0015)

Time = 0.006

Courant Number mean: 0.24201025 max: 0.59408844
smoothSolver:  Solving for Ux, Initial residual = 0.013295729, Final residual = 3.985763e-09, No Iterations 11
smoothSolver:  Solving for Uy, Initial residual = 0.013295959, Final residual = 5.7039551e-09, No Iterations 11
smoothSolver:  Solving for Uz, Initial residual = 0.0087183306, Final residual = 6.6107121e-09, No Iterations 11
GAMG:  Solving for p, Initial residual = 0.0013867563, Final residual = 1.3840855e-05, No Iterations 380
GAMG:  Solving for p, Initial residual = 0.00010552478, Final residual = 1.0277948e-06, No Iterations 188
time step continuity errors : sum local = 6.0504668e-09, global = 4.5398245e-10, cumulative = 2.6648875e-08
GAMG:  Solving for p, Initial residual = 0.00052975239, Final residual = 5.2457147e-06, No Iterations 418
GAMG:  Solving for p, Initial residual = 5.2886878e-05, Final residual = 9.9498819e-07, No Iterations 116
time step continuity errors : sum local = 6.0438701e-09, global = -4.4459391e-10, cumulative = 2.6204281e-08
ExecutionTime = 74 s  ClockTime = 74 s

fieldMinMax minmaxdomain output:
    min(p) = 0 at location (-0.000525 0 0.216)
    max(p) = 21.789875 at location (0.00014395116 0.0014503614 0.0015)
    min(U) = (-8.2717861e-05 -7.1294855e-06 0.15393071) at location (-0.00014395116 -0.0014503614 0.0075)
    max(U) = (0.0073231617 0.070363412 1.3228615) at location (-0.00010410186 -0.0011123239 0.0015)

Time = 0.0065

Courant Number mean: 0.24212407 max: 0.59553669
smoothSolver:  Solving for Ux, Initial residual = 0.011628458, Final residual = 3.5363309e-09, No Iterations 11
smoothSolver:  Solving for Uy, Initial residual = 0.011628741, Final residual = 5.1080827e-09, No Iterations 11
smoothSolver:  Solving for Uz, Initial residual = 0.0076276553, Final residual = 5.9331634e-09, No Iterations 11
GAMG:  Solving for p, Initial residual = 0.001206151, Final residual = 1.2023663e-05, No Iterations 380
GAMG:  Solving for p, Initial residual = 8.7780419e-05, Final residual = 9.899697e-07, No Iterations 180
time step continuity errors : sum local = 5.7490464e-09, global = 4.2966523e-10, cumulative = 2.6633947e-08
GAMG:  Solving for p, Initial residual = 0.00047150491, Final residual = 4.656845e-06, No Iterations 416
GAMG:  Solving for p, Initial residual = 4.5037495e-05, Final residual = 9.9156094e-07, No Iterations 108
time step continuity errors : sum local = 5.91648e-09, global = -4.3282067e-10, cumulative = 2.6201126e-08
ExecutionTime = 79.68 s  ClockTime = 80 s

fieldMinMax minmaxdomain output:
    min(p) = 0 at location (-0.000525 0 0.216)
    max(p) = 21.414008 at location (-0.00014395116 0.0014503614 0.0015)
    min(U) = (-8.0774446e-05 6.2538599e-06 0.15251775) at location (-0.00014395116 -0.0014503614 0.0075)
    max(U) = (0.0073403195 0.0705821 1.3268383) at location (-0.00010410186 -0.0011123239 0.0015)

Time = 0.007

Courant Number mean: 0.24222633 max: 0.59650082
smoothSolver:  Solving for Ux, Initial residual = 0.010238262, Final residual = 3.1619096e-09, No Iterations 11
smoothSolver:  Solving for Uy, Initial residual = 0.010238804, Final residual = 4.5674398e-09, No Iterations 11
smoothSolver:  Solving for Uz, Initial residual = 0.006703574, Final residual = 5.3360761e-09, No Iterations 11
GAMG:  Solving for p, Initial residual = 0.0010549854, Final residual = 1.0518253e-05, No Iterations 380
GAMG:  Solving for p, Initial residual = 7.508562e-05, Final residual = 9.9047476e-07, No Iterations 170
time step continuity errors : sum local = 5.6829996e-09, global = 4.2242128e-10, cumulative = 2.6623547e-08
GAMG:  Solving for p, Initial residual = 0.0004168564, Final residual = 4.1677565e-06, No Iterations 414
GAMG:  Solving for p, Initial residual = 3.9734099e-05, Final residual = 9.953757e-07, No Iterations 100
time step continuity errors : sum local = 5.84758e-09, global = -4.2542264e-10, cumulative = 2.6198125e-08
ExecutionTime = 84.84 s  ClockTime = 85 s

fieldMinMax minmaxdomain output:
    min(p) = 0 at location (-0.000525 0 0.216)
    max(p) = 21.093076 at location (-0.00014395116 0.0014503614 0.0015)
    min(U) = (-7.9555843e-05 1.6890628e-05 0.15153574) at location (-0.00014395116 -0.0014503614 0.0075)
    max(U) = (0.0073522756 0.070726743 1.3300092) at location (-0.00010410186 -0.0011123239 0.0015)

Time = 0.0075

Courant Number mean: 0.24231863 max: 0.59714185
smoothSolver:  Solving for Ux, Initial residual = 0.0090660256, Final residual = 2.8052975e-09, No Iterations 11
smoothSolver:  Solving for Uy, Initial residual = 0.0090665366, Final residual = 4.0693867e-09, No Iterations 11
smoothSolver:  Solving for Uz, Initial residual = 0.0059136214, Final residual = 4.80595e-09, No Iterations 11
GAMG:  Solving for p, Initial residual = 0.00091880199, Final residual = 8.9949364e-06, No Iterations 382
GAMG:  Solving for p, Initial residual = 6.5389622e-05, Final residual = 9.9805287e-07, No Iterations 158
time step continuity errors : sum local = 5.6653479e-09, global = 4.1917228e-10, cumulative = 2.6617297e-08
GAMG:  Solving for p, Initial residual = 0.0003778328, Final residual = 3.7552856e-06, No Iterations 412
GAMG:  Solving for p, Initial residual = 3.5064635e-05, Final residual = 9.7753181e-07, No Iterations 94
time step continuity errors : sum local = 5.6649798e-09, global = -4.1035964e-10, cumulative = 2.6206937e-08
ExecutionTime = 90.11 s  ClockTime = 90 s

fieldMinMax minmaxdomain output:
    min(p) = 0 at location (-0.000525 0 0.216)
    max(p) = 20.816777 at location (-0.00014395116 0.0014503614 0.0015)
    min(U) = (-7.8845567e-05 2.5345936e-05 0.1508815) at location (-0.00014395116 -0.0014503614 0.0075)
    max(U) = (0.0073608726 0.070822931 1.3324755) at location (-0.00010410186 -0.0011123239 0.0015)

Time = 0.008

Courant Number mean: 0.2424019 max: 0.59757129
smoothSolver:  Solving for Ux, Initial residual = 0.0080851534, Final residual = 9.1398858e-09, No Iterations 10
smoothSolver:  Solving for Uy, Initial residual = 0.0080854037, Final residual = 3.643806e-09, No Iterations 11
smoothSolver:  Solving for Uz, Initial residual = 0.005235804, Final residual = 4.3330156e-09, No Iterations 11
GAMG:  Solving for p, Initial residual = 0.00080087569, Final residual = 7.9541683e-06, No Iterations 382
GAMG:  Solving for p, Initial residual = 5.6826756e-05, Final residual = 9.8295131e-07, No Iterations 150
time step continuity errors : sum local = 5.5265843e-09, global = 4.0721117e-10, cumulative = 2.6614148e-08
GAMG:  Solving for p, Initial residual = 0.00034782586, Final residual = 3.4036139e-06, No Iterations 410
GAMG:  Solving for p, Initial residual = 3.0679206e-05, Final residual = 9.927845e-07, No Iterations 86
time step continuity errors : sum local = 5.6847237e-09, global = -4.0955281e-10, cumulative = 2.6204596e-08
ExecutionTime = 95.17 s  ClockTime = 96 s

fieldMinMax minmaxdomain output:
    min(p) = 0 at location (-0.000525 0 0.216)
    max(p) = 20.577229 at location (-0.00014395116 0.0014503614 0.0015)
    min(U) = (-7.8488832e-05 -3.1967543e-05 0.15047185) at location (-0.00014395116 0.0014503614 0.0075)
    max(U) = (0.0073673107 0.07088822 1.3343393) at location (-0.00010410186 -0.0011123239 0.0015)

Time = 0.0085

Courant Number mean: 0.24247724 max: 0.59786524
smoothSolver:  Solving for Ux, Initial residual = 0.0072342896, Final residual = 8.1474041e-09, No Iterations 10
smoothSolver:  Solving for Uy, Initial residual = 0.0072345345, Final residual = 3.2923702e-09, No Iterations 11
smoothSolver:  Solving for Uz, Initial residual = 0.0046593787, Final residual = 3.9092948e-09, No Iterations 11
GAMG:  Solving for p, Initial residual = 0.00070933771, Final residual = 7.0617593e-06, No Iterations 382
GAMG:  Solving for p, Initial residual = 4.8869014e-05, Final residual = 9.7347114e-07, No Iterations 142
time step continuity errors : sum local = 5.4269475e-09, global = 3.9503455e-10, cumulative = 2.659963e-08
GAMG:  Solving for p, Initial residual = 0.0003154344, Final residual = 3.0982611e-06, No Iterations 408
GAMG:  Solving for p, Initial residual = 2.6588066e-05, Final residual = 9.8434697e-07, No Iterations 80
time step continuity errors : sum local = 5.5769936e-09, global = -4.0009224e-10, cumulative = 2.6199538e-08
ExecutionTime = 100.2 s  ClockTime = 101 s

fieldMinMax minmaxdomain output:
    min(p) = 0 at location (-0.000525 0 0.216)
    max(p) = 20.368321 at location (-0.00014395116 0.0014503614 0.0015)
    min(U) = (-7.8379773e-05 -3.7044114e-05 0.15024007) at location (-0.00014395116 0.0014503614 0.0075)
    max(U) = (0.0073723254 0.070934377 1.3357018) at location (-0.00010410186 -0.0011123239 0.0015)

Time = 0.009

Courant Number mean: 0.24254543 max: 0.59807455
smoothSolver:  Solving for Ux, Initial residual = 0.0064833025, Final residual = 7.3237936e-09, No Iterations 10
smoothSolver:  Solving for Uy, Initial residual = 0.0064837001, Final residual = 2.9704722e-09, No Iterations 11
smoothSolver:  Solving for Uz, Initial residual = 0.0041552438, Final residual = 3.5285721e-09, No Iterations 11
GAMG:  Solving for p, Initial residual = 0.00063504241, Final residual = 6.2947467e-06, No Iterations 382
GAMG:  Solving for p, Initial residual = 4.1620759e-05, Final residual = 9.9494724e-07, No Iterations 132
time step continuity errors : sum local = 5.5048553e-09, global = 4.0136744e-10, cumulative = 2.6600905e-08
GAMG:  Solving for p, Initial residual = 0.00028724969, Final residual = 2.8320289e-06, No Iterations 406
GAMG:  Solving for p, Initial residual = 2.2861886e-05, Final residual = 9.7996206e-07, No Iterations 74
time step continuity errors : sum local = 5.5003044e-09, global = -3.9294489e-10, cumulative = 2.620796e-08
ExecutionTime = 104.91 s  ClockTime = 105 s

fieldMinMax minmaxdomain output:
    min(p) = 0 at location (-0.000525 0 0.216)
    max(p) = 20.185194 at location (-0.00014395116 0.0014503614 0.0015)
    min(U) = (-7.8434932e-05 -4.0840735e-05 0.15013324) at location (-0.00014395116 0.0014503614 0.0075)
    max(U) = (0.0073763885 0.070969051 1.3366597) at location (-0.00010410186 -0.0011123239 0.0015)

Time = 0.0095

Courant Number mean: 0.24260723 max: 0.59823224
smoothSolver:  Solving for Ux, Initial residual = 0.00581854, Final residual = 6.6354804e-09, No Iterations 10
smoothSolver:  Solving for Uy, Initial residual = 0.0058190014, Final residual = 9.4565023e-09, No Iterations 10
smoothSolver:  Solving for Uz, Initial residual = 0.0037125241, Final residual = 3.188102e-09, No Iterations 11
GAMG:  Solving for p, Initial residual = 0.00057550338, Final residual = 5.6269901e-06, No Iterations 382
GAMG:  Solving for p, Initial residual = 3.5279332e-05, Final residual = 9.9257533e-07, No Iterations 124
time step continuity errors : sum local = 5.4549098e-09, global = 3.960918e-10, cumulative = 2.6604052e-08
GAMG:  Solving for p, Initial residual = 0.00026669926, Final residual = 2.5972814e-06, No Iterations 404
GAMG:  Solving for p, Initial residual = 1.9561768e-05, Final residual = 9.7890197e-07, No Iterations 68
time step continuity errors : sum local = 5.4489472e-09, global = -3.8766221e-10, cumulative = 2.621639e-08
ExecutionTime = 110.11 s  ClockTime = 111 s

fieldMinMax minmaxdomain output:
    min(p) = 0 at location (-0.000525 0 0.216)
    max(p) = 20.023975 at location (-0.00014395116 0.0014503614 0.0015)
    min(U) = (-7.8589751e-05 -4.3599702e-05 0.15011022) at location (-0.00014395116 0.0014503614 0.0075)
    max(U) = (0.0073797999 0.070997018 1.3373014) at location (-0.00010410186 -0.0011123239 0.0015)

Time = 0.01

Courant Number mean: 0.24266348 max: 0.59835903
smoothSolver:  Solving for Ux, Initial residual = 0.0052524886, Final residual = 5.9929863e-09, No Iterations 10
smoothSolver:  Solving for Uy, Initial residual = 0.0052529317, Final residual = 8.545786e-09, No Iterations 10
smoothSolver:  Solving for Uz, Initial residual = 0.0033229057, Final residual = 9.5624971e-09, No Iterations 10
GAMG:  Solving for p, Initial residual = 0.00052145116, Final residual = 5.1878344e-06, No Iterations 380
GAMG:  Solving for p, Initial residual = 2.9961067e-05, Final residual = 9.9299797e-07, No Iterations 118
time step continuity errors : sum local = 5.4245086e-09, global = 3.9227701e-10, cumulative = 2.6608667e-08
GAMG:  Solving for p, Initial residual = 0.00024426185, Final residual = 2.3887747e-06, No Iterations 402
GAMG:  Solving for p, Initial residual = 1.6689662e-05, Final residual = 9.807311e-07, No Iterations 62
time step continuity errors : sum local = 5.4189948e-09, global = -3.8395117e-10, cumulative = 2.6224716e-08
ExecutionTime = 114.19 s  ClockTime = 115 s

fieldMinMax minmaxdomain output:
    min(p) = 0 at location (-0.000525 0 0.216)
    max(p) = 19.881501 at location (-0.00014395116 0.0014503614 0.0015)
    min(U) = (-7.8795017e-05 -4.5539336e-05 0.15013976) at location (-0.00014395116 0.0014503614 0.0075)
    max(U) = (0.0073827383 0.071021111 1.3377048) at location (-0.00010410186 -0.0011123239 0.0015)

Time = 0.0105

Courant Number mean: 0.24271463 max: 0.5984673
smoothSolver:  Solving for Ux, Initial residual = 0.0048882995, Final residual = 5.3890708e-09, No Iterations 10
smoothSolver:  Solving for Uy, Initial residual = 0.0048887312, Final residual = 7.7018465e-09, No Iterations 10
smoothSolver:  Solving for Uz, Initial residual = 0.002981209, Final residual = 8.6504515e-09, No Iterations 10
GAMG:  Solving for p, Initial residual = 0.00046987877, Final residual = 4.659165e-06, No Iterations 380
GAMG:  Solving for p, Initial residual = 2.5982063e-05, Final residual = 9.9638021e-07, No Iterations 110
time step continuity errors : sum local = 5.4137595e-09, global = 3.8992132e-10, cumulative = 2.6614637e-08
GAMG:  Solving for p, Initial residual = 0.0002222581, Final residual = 2.2024658e-06, No Iterations 400
GAMG:  Solving for p, Initial residual = 1.4446869e-05, Final residual = 9.8516872e-07, No Iterations 56
time step continuity errors : sum local = 5.4078072e-09, global = -3.8160236e-10, cumulative = 2.6233035e-08
ExecutionTime = 118.24 s  ClockTime = 119 s

fieldMinMax minmaxdomain output:
    min(p) = 0 at location (-0.000525 0 0.216)
    max(p) = 19.755173 at location (-0.00014395116 0.0014503614 0.0015)
    min(U) = (-7.9013881e-05 -4.6850112e-05 0.15019884) at location (-0.00014395116 0.0014503614 0.0075)
    max(U) = (0.0073853099 0.07104289 1.3379356) at location (-0.00010410186 -0.0011123239 0.0015)

Time = 0.011

Courant Number mean: 0.24276122 max: 0.598564
smoothSolver:  Solving for Ux, Initial residual = 0.0045592247, Final residual = 4.8753318e-09, No Iterations 10
smoothSolver:  Solving for Uy, Initial residual = 0.0045595733, Final residual = 7.0022954e-09, No Iterations 10
smoothSolver:  Solving for Uz, Initial residual = 0.0026810709, Final residual = 7.8276864e-09, No Iterations 10
GAMG:  Solving for p, Initial residual = 0.00041846073, Final residual = 4.0743329e-06, No Iterations 382
GAMG:  Solving for p, Initial residual = 2.4074857e-05, Final residual = 9.7433903e-07, No Iterations 102
time step continuity errors : sum local = 5.2684924e-09, global = 3.784005e-10, cumulative = 2.6611435e-08
GAMG:  Solving for p, Initial residual = 0.00020439441, Final residual = 2.0349959e-06, No Iterations 398
GAMG:  Solving for p, Initial residual = 1.3267321e-05, Final residual = 9.9183028e-07, No Iterations 50
time step continuity errors : sum local = 5.4124468e-09, global = -3.8040553e-10, cumulative = 2.623103e-08
ExecutionTime = 123.38 s  ClockTime = 124 s

fieldMinMax minmaxdomain output:
    min(p) = 0 at location (-0.000525 0 0.216)
    max(p) = 19.642841 at location (-0.00014395116 0.0014503614 0.0015)
    min(U) = (-7.9222593e-05 -4.7693023e-05 0.1502711) at location (-0.00014395116 0.0014503614 0.0075)
    max(U) = (0.0073875765 0.071063111 1.3380473) at location (-0.00010410186 -0.0011123239 0.0015)

Time = 0.0115

Courant Number mean: 0.2428036 max: 0.59865266
smoothSolver:  Solving for Ux, Initial residual = 0.0042134504, Final residual = 4.450957e-09, No Iterations 10
smoothSolver:  Solving for Uy, Initial residual = 0.0042136723, Final residual = 6.3888434e-09, No Iterations 10
smoothSolver:  Solving for Uz, Initial residual = 0.0024151064, Final residual = 7.0846568e-09, No Iterations 10
GAMG:  Solving for p, Initial residual = 0.00036864173, Final residual = 3.6720583e-06, No Iterations 382
GAMG:  Solving for p, Initial residual = 2.2578913e-05, Final residual = 9.8181782e-07, No Iterations 94
time step continuity errors : sum local = 5.2859495e-09, global = 3.7817058e-10, cumulative = 2.66092e-08
GAMG:  Solving for p, Initial residual = 0.0001885829, Final residual = 1.8835188e-06, No Iterations 396
GAMG:  Solving for p, Initial residual = 1.2492781e-05, Final residual = 9.7240092e-07, No Iterations 46
time step continuity errors : sum local = 5.278538e-09, global = -3.6998171e-10, cumulative = 2.6239219e-08
ExecutionTime = 128.24 s  ClockTime = 129 s

fieldMinMax minmaxdomain output:
    min(p) = 0 at location (-0.000525 0 0.216)
    max(p) = 19.542696 at location (-0.00014395116 0.0014503614 0.0015)
    min(U) = (-7.9405355e-05 -4.8200199e-05 0.15034553) at location (-0.00014395116 0.0014503614 0.0075)
    max(U) = (0.0073895753 0.071082055 1.3380819) at location (-0.00010410186 -0.0011123239 0.0015)

Time = 0.012

Courant Number mean: 0.24284224 max: 0.59873479
smoothSolver:  Solving for Ux, Initial residual = 0.0038618153, Final residual = 4.0399e-09, No Iterations 10
smoothSolver:  Solving for Uy, Initial residual = 0.0038620458, Final residual = 5.8047118e-09, No Iterations 10
smoothSolver:  Solving for Uz, Initial residual = 0.002177946, Final residual = 6.4147569e-09, No Iterations 10
GAMG:  Solving for p, Initial residual = 0.00032962186, Final residual = 3.22102e-06, No Iterations 384
GAMG:  Solving for p, Initial residual = 2.0951591e-05, Final residual = 9.9114607e-07, No Iterations 84
time step continuity errors : sum local = 5.3153836e-09, global = 3.788278e-10, cumulative = 2.6618046e-08
GAMG:  Solving for p, Initial residual = 0.00017206374, Final residual = 1.6969324e-06, No Iterations 396
GAMG:  Solving for p, Initial residual = 1.1683441e-05, Final residual = 9.8228597e-07, No Iterations 38
time step continuity errors : sum local = 5.3070751e-09, global = -3.7056477e-10, cumulative = 2.6247482e-08
ExecutionTime = 133.07 s  ClockTime = 134 s

fieldMinMax minmaxdomain output:
    min(p) = 0 at location (-0.000525 0 0.216)
    max(p) = 19.453205 at location (-0.00014395116 0.0014503614 0.0015)
    min(U) = (-7.955364e-05 -4.8477073e-05 0.15041516) at location (-0.00014395116 0.0014503614 0.0075)
    max(U) = (0.0073913305 0.071099754 1.3380709) at location (-0.00010410186 -0.0011123239 0.0015)

Time = 0.0125

Courant Number mean: 0.24287747 max: 0.59881077
smoothSolver:  Solving for Ux, Initial residual = 0.0035151995, Final residual = 3.6413276e-09, No Iterations 10
smoothSolver:  Solving for Uy, Initial residual = 0.0035156029, Final residual = 5.2458899e-09, No Iterations 10
smoothSolver:  Solving for Uz, Initial residual = 0.0019665687, Final residual = 5.8124945e-09, No Iterations 10
GAMG:  Solving for p, Initial residual = 0.00029613574, Final residual = 2.9100374e-06, No Iterations 384
GAMG:  Solving for p, Initial residual = 1.9365491e-05, Final residual = 9.7383272e-07, No Iterations 78
time step continuity errors : sum local = 5.2041858e-09, global = 3.6995865e-10, cumulative = 2.661744e-08
GAMG:  Solving for p, Initial residual = 0.00015704919, Final residual = 1.530517e-06, No Iterations 396
GAMG:  Solving for p, Initial residual = 1.0867511e-05, Final residual = 9.932995e-07, No Iterations 30
time step continuity errors : sum local = 5.3438253e-09, global = -3.7176191e-10, cumulative = 2.6245678e-08
ExecutionTime = 137.86 s  ClockTime = 138 s

fieldMinMax minmaxdomain output:
    min(p) = 0 at location (-0.000525 0 0.216)
    max(p) = 19.373084 at location (-0.00014395116 0.0014503614 0.0015)
    min(U) = (-7.9665838e-05 -4.8604314e-05 0.15047612) at location (-0.00014395116 0.0014503614 0.0075)
    max(U) = (0.007392861 0.071116126 1.3380367) at location (-0.00010410186 -0.0011123239 0.0015)

Time = 0.013

Courant Number mean: 0.24290963 max: 0.59888051
smoothSolver:  Solving for Ux, Initial residual = 0.0031833856, Final residual = 3.2790467e-09, No Iterations 10
smoothSolver:  Solving for Uy, Initial residual = 0.0031838442, Final residual = 4.7471944e-09, No Iterations 10
smoothSolver:  Solving for Uz, Initial residual = 0.0017782139, Final residual = 5.2678457e-09, No Iterations 10
GAMG:  Solving for p, Initial residual = 0.0002694638, Final residual = 2.6316501e-06, No Iterations 384
GAMG:  Solving for p, Initial residual = 1.7770303e-05, Final residual = 9.8530835e-07, No Iterations 70
time step continuity errors : sum local = 5.2488251e-09, global = 3.7178873e-10, cumulative = 2.6617467e-08
GAMG:  Solving for p, Initial residual = 0.00014401685, Final residual = 1.4216827e-06, No Iterations 394
GAMG:  Solving for p, Initial residual = 1.0083005e-05, Final residual = 9.7716286e-07, No Iterations 26
time step continuity errors : sum local = 5.2369422e-09, global = -3.6349218e-10, cumulative = 2.6253975e-08
ExecutionTime = 142.77 s  ClockTime = 143 s

fieldMinMax minmaxdomain output:
    min(p) = 0 at location (-0.000525 0 0.216)
    max(p) = 19.301223 at location (0.00014395116 0.0014503614 0.0015)
    min(U) = (-7.9743711e-05 4.8641642e-05 0.15052669) at location (-0.00014395116 -0.0014503614 0.0075)
    max(U) = (0.0073941837 0.071131066 1.3379949) at location (-0.00010410186 -0.0011123239 0.0015)

Time = 0.0135

Courant Number mean: 0.242939 max: 0.59894375
smoothSolver:  Solving for Ux, Initial residual = 0.0028778041, Final residual = 2.9747415e-09, No Iterations 10
smoothSolver:  Solving for Uy, Initial residual = 0.0028782205, Final residual = 4.3086251e-09, No Iterations 10
smoothSolver:  Solving for Uz, Initial residual = 0.0016098844, Final residual = 4.774785e-09, No Iterations 10
GAMG:  Solving for p, Initial residual = 0.00024376387, Final residual = 2.3818091e-06, No Iterations 384
GAMG:  Solving for p, Initial residual = 1.6198826e-05, Final residual = 9.9788226e-07, No Iterations 62
time step continuity errors : sum local = 5.3005618e-09, global = 3.7416183e-10, cumulative = 2.6628137e-08
GAMG:  Solving for p, Initial residual = 0.00013151091, Final residual = 1.284901e-06, No Iterations 394
GAMG:  Solving for p, Initial residual = 9.2769689e-06, Final residual = 9.9003749e-07, No Iterations 18
time step continuity errors : sum local = 5.2876471e-09, global = -3.6596433e-10, cumulative = 2.6262172e-08
ExecutionTime = 147.24 s  ClockTime = 148 s

fieldMinMax minmaxdomain output:
    min(p) = 0 at location (-0.000525 0 0.216)
    max(p) = 19.236657 at location (0.00014395116 0.0014503614 0.0015)
    min(U) = (-7.9790107e-05 4.8631958e-05 0.15056668) at location (-0.00014395116 -0.0014503614 0.0075)
    max(U) = (0.0073953155 0.071144492 1.3379549) at location (-0.00010410186 -0.0011123239 0.0015)

Time = 0.014

Courant Number mean: 0.24296579 max: 0.5990003
smoothSolver:  Solving for Ux, Initial residual = 0.0026256766, Final residual = 9.9256237e-09, No Iterations 9
smoothSolver:  Solving for Uy, Initial residual = 0.0026260577, Final residual = 3.907802e-09, No Iterations 10
smoothSolver:  Solving for Uz, Initial residual = 0.0014585094, Final residual = 4.3293513e-09, No Iterations 10
GAMG:  Solving for p, Initial residual = 0.00021983451, Final residual = 2.1563492e-06, No Iterations 384
GAMG:  Solving for p, Initial residual = 1.479037e-05, Final residual = 9.8286236e-07, No Iterations 56
time step continuity errors : sum local = 5.2072225e-09, global = 3.6678395e-10, cumulative = 2.6628956e-08
GAMG:  Solving for p, Initial residual = 0.00012020061, Final residual = 1.1948977e-06, No Iterations 392
GAMG:  Solving for p, Initial residual = 8.5542613e-06, Final residual = 9.7507085e-07, No Iterations 14
time step continuity errors : sum local = 5.1914804e-09, global = -3.5875488e-10, cumulative = 2.6270202e-08
ExecutionTime = 151.52 s  ClockTime = 152 s

fieldMinMax minmaxdomain output:
    min(p) = 0 at location (-0.000525 0 0.216)
    max(p) = 19.178581 at location (0.00014395116 -0.0014503614 0.0015)
    min(U) = (-7.9809973e-05 4.8604164e-05 0.1505968) at location (-0.00014395116 -0.0014503614 0.0075)
    max(U) = (0.0073962742 0.071156369 1.3379222) at location (-0.00010410186 -0.0011123239 0.0015)

Time = 0.0145

Courant Number mean: 0.24299028 max: 0.59905014
smoothSolver:  Solving for Ux, Initial residual = 0.0023937555, Final residual = 9.0081145e-09, No Iterations 9
smoothSolver:  Solving for Uy, Initial residual = 0.0023939474, Final residual = 3.534819e-09, No Iterations 10
smoothSolver:  Solving for Uz, Initial residual = 0.001321942, Final residual = 3.9269758e-09, No Iterations 10
GAMG:  Solving for p, Initial residual = 0.00019953797, Final residual = 1.9537273e-06, No Iterations 384
GAMG:  Solving for p, Initial residual = 1.339354e-05, Final residual = 9.9669254e-07, No Iterations 48
time step continuity errors : sum local = 5.2680499e-09, global = 3.6992821e-10, cumulative = 2.664013e-08
GAMG:  Solving for p, Initial residual = 0.00010967936, Final residual = 1.0809665e-06, No Iterations 392
GAMG:  Solving for p, Initial residual = 7.7898519e-06, Final residual = 9.9049838e-07, No Iterations 6
time step continuity errors : sum local = 5.2587449e-09, global = -3.6351436e-10, cumulative = 2.6276615e-08
ExecutionTime = 155.22 s  ClockTime = 156 s

fieldMinMax minmaxdomain output:
    min(p) = 0 at location (-0.000525 0 0.216)
    max(p) = 19.126256 at location (0.00014395116 0.0014503614 0.0015)
    min(U) = (-7.9809162e-05 4.857638e-05 0.15061833) at location (-0.00014395116 -0.0014503614 0.0075)
    max(U) = (0.0073970781 0.071166713 1.3378989) at location (-0.00010410186 -0.0011123239 0.0015)

Time = 0.015

Courant Number mean: 0.24301265 max: 0.59909343
smoothSolver:  Solving for Ux, Initial residual = 0.0021683161, Final residual = 8.1514352e-09, No Iterations 9
smoothSolver:  Solving for Uy, Initial residual = 0.0021685195, Final residual = 3.1979382e-09, No Iterations 10
smoothSolver:  Solving for Uz, Initial residual = 0.0011987136, Final residual = 3.562598e-09, No Iterations 10
GAMG:  Solving for p, Initial residual = 0.00018393595, Final residual = 1.8210534e-06, No Iterations 382
GAMG:  Solving for p, Initial residual = 1.2137777e-05, Final residual = 9.8243031e-07, No Iterations 44
time step continuity errors : sum local = 5.181552e-09, global = 3.6322014e-10, cumulative = 2.6639836e-08
GAMG:  Solving for p, Initial residual = 9.9393884e-05, Final residual = 9.7802914e-07, No Iterations 392
GAMG:  Solving for p, Initial residual = 7.0548195e-06, Final residual = 9.3217907e-07, No Iterations 4
time step continuity errors : sum local = 4.9364613e-09, global = -3.3858149e-10, cumulative = 2.6301254e-08
ExecutionTime = 159.69 s  ClockTime = 160 s

fieldMinMax minmaxdomain output:
    min(p) = 0 at location (-0.000525 0 0.216)
    max(p) = 19.079093 at location (-0.00014395116 0.0014503614 0.0015)
    min(U) = (-7.9792949e-05 4.8558768e-05 0.15063277) at location (-0.00014395116 -0.0014503614 0.0075)
    max(U) = (0.0073977459 0.071175587 1.3378855) at location (-0.00010410186 -0.0011123239 0.0015)

Time = 0.0155

Courant Number mean: 0.24303309 max: 0.5991305
smoothSolver:  Solving for Ux, Initial residual = 0.0019565374, Final residual = 7.3462233e-09, No Iterations 9
smoothSolver:  Solving for Uy, Initial residual = 0.0019567967, Final residual = 2.8931126e-09, No Iterations 10
smoothSolver:  Solving for Uz, Initial residual = 0.0010873857, Final residual = 3.2323946e-09, No Iterations 10
GAMG:  Solving for p, Initial residual = 0.00016807232, Final residual = 1.6516553e-06, No Iterations 382
GAMG:  Solving for p, Initial residual = 1.089414e-05, Final residual = 9.9747412e-07, No Iterations 36
time step continuity errors : sum local = 5.2506479e-09, global = 3.6713579e-10, cumulative = 2.666839e-08
GAMG:  Solving for p, Initial residual = 9.0022449e-05, Final residual = 9.9241899e-07, No Iterations 384
GAMG:  Solving for p, Initial residual = 6.4526956e-06, Final residual = 9.4318868e-07, No Iterations 4
time step continuity errors : sum local = 4.9831703e-09, global = -3.3972106e-10, cumulative = 2.6328669e-08
ExecutionTime = 163.85 s  ClockTime = 164 s

fieldMinMax minmaxdomain output:
    min(p) = 0 at location (-0.000525 0 0.216)
    max(p) = 19.036495 at location (-0.00014395116 0.0014503614 0.0015)
    min(U) = (-7.9765691e-05 4.8555563e-05 0.15064165) at location (-0.00014395116 -0.0014503614 0.0075)
    max(U) = (0.0073982965 0.071183094 1.3378807) at location (-0.00010410186 -0.0011123239 0.0015)

Time = 0.016

Courant Number mean: 0.24305179 max: 0.59916181
smoothSolver:  Solving for Ux, Initial residual = 0.0017836095, Final residual = 6.6375464e-09, No Iterations 9
smoothSolver:  Solving for Uy, Initial residual = 0.001783794, Final residual = 9.3331816e-09, No Iterations 9
smoothSolver:  Solving for Uz, Initial residual = 0.00098696702, Final residual = 9.7922162e-09, No Iterations 9
GAMG:  Solving for p, Initial residual = 0.0001536298, Final residual = 1.4964377e-06, No Iterations 382
GAMG:  Solving for p, Initial residual = 9.8159528e-06, Final residual = 9.834533e-07, No Iterations 30
time step continuity errors : sum local = 5.167683e-09, global = 3.6087604e-10, cumulative = 2.6689545e-08
GAMG:  Solving for p, Initial residual = 8.2361094e-05, Final residual = 9.7783409e-07, No Iterations 378
GAMG:  Solving for p, Initial residual = 5.8989164e-06, Final residual = 9.2769972e-07, No Iterations 4
time step continuity errors : sum local = 4.8909985e-09, global = -3.3259666e-10, cumulative = 2.6356948e-08
ExecutionTime = 168.62 s  ClockTime = 169 s

fieldMinMax minmaxdomain output:
    min(p) = 0 at location (-0.000525 0 0.216)
    max(p) = 18.998025 at location (-0.00014395116 0.0014503614 0.0015)
    min(U) = (-7.9732482e-05 4.8567496e-05 0.1506464) at location (-0.00014395116 -0.0014503614 0.0075)
    max(U) = (0.007398747 0.07118936 1.3378831) at location (-0.00010410186 -0.0011123239 0.0015)

Time = 0.0165

Courant Number mean: 0.24306887 max: 0.59918794
smoothSolver:  Solving for Ux, Initial residual = 0.0016243165, Final residual = 6.0168096e-09, No Iterations 9
smoothSolver:  Solving for Uy, Initial residual = 0.0016244054, Final residual = 8.4597131e-09, No Iterations 9
smoothSolver:  Solving for Uz, Initial residual = 0.0008960634, Final residual = 8.8895412e-09, No Iterations 9
GAMG:  Solving for p, Initial residual = 0.00014021321, Final residual = 1.3959978e-06, No Iterations 380
GAMG:  Solving for p, Initial residual = 8.8818926e-06, Final residual = 9.9828007e-07, No Iterations 24
time step continuity errors : sum local = 5.2371342e-09, global = 3.6499174e-10, cumulative = 2.672194e-08
GAMG:  Solving for p, Initial residual = 7.4889213e-05, Final residual = 9.9196379e-07, No Iterations 370
GAMG:  Solving for p, Initial residual = 5.4243534e-06, Final residual = 9.3950597e-07, No Iterations 4
time step continuity errors : sum local = 4.9437441e-09, global = -3.3537184e-10, cumulative = 2.6386568e-08
ExecutionTime = 172.75 s  ClockTime = 173 s

fieldMinMax minmaxdomain output:
    min(p) = 0 at location (-0.000525 0 0.216)
    max(p) = 18.963231 at location (-0.00014395116 0.0014503614 0.0015)
    min(U) = (-7.9697004e-05 4.8592795e-05 0.15064827) at location (-0.00014395116 -0.0014503614 0.0075)
    max(U) = (0.0073991136 0.071194529 1.3378908) at location (-0.00010410186 -0.0011123239 0.0015)

Time = 0.017

Courant Number mean: 0.2430845 max: 0.59920948
smoothSolver:  Solving for Ux, Initial residual = 0.0014714068, Final residual = 5.4529568e-09, No Iterations 9
smoothSolver:  Solving for Uy, Initial residual = 0.0014714297, Final residual = 7.6730366e-09, No Iterations 9
smoothSolver:  Solving for Uz, Initial residual = 0.00081360711, Final residual = 8.072151e-09, No Iterations 9
GAMG:  Solving for p, Initial residual = 0.00012720328, Final residual = 1.2652553e-06, No Iterations 380
GAMG:  Solving for p, Initial residual = 7.9821203e-06, Final residual = 9.8463004e-07, No Iterations 18
time step continuity errors : sum local = 5.1579341e-09, global = 3.5923606e-10, cumulative = 2.6745804e-08
GAMG:  Solving for p, Initial residual = 6.7945876e-05, Final residual = 9.7776408e-07, No Iterations 364
GAMG:  Solving for p, Initial residual = 4.9643682e-06, Final residual = 9.2519721e-07, No Iterations 4
time step continuity errors : sum local = 4.8599531e-09, global = -3.2957607e-10, cumulative = 2.6416228e-08
ExecutionTime = 176.74 s  ClockTime = 177 s

fieldMinMax minmaxdomain output:
    min(p) = 0 at location (-0.000525 0 0.216)
    max(p) = 18.93176 at location (-0.00014395116 0.0014503614 0.0015)
    min(U) = (-7.9662023e-05 4.8628468e-05 0.15064827) at location (-0.00014395116 -0.0014503614 0.0075)
    max(U) = (0.007399411 0.071198748 1.3379019) at location (-0.00010410186 -0.0011123239 0.0015)

Time = 0.0175

Courant Number mean: 0.24309878 max: 0.59922709
smoothSolver:  Solving for Ux, Initial residual = 0.0013283354, Final residual = 4.9347973e-09, No Iterations 9
smoothSolver:  Solving for Uy, Initial residual = 0.0013283096, Final residual = 6.9677671e-09, No Iterations 9
smoothSolver:  Solving for Uz, Initial residual = 0.00073887417, Final residual = 7.3309227e-09, No Iterations 9
GAMG:  Solving for p, Initial residual = 0.00011584753, Final residual = 1.147412e-06, No Iterations 380
GAMG:  Solving for p, Initial residual = 7.147652e-06, Final residual = 9.9966245e-07, No Iterations 10
time step continuity errors : sum local = 5.2296534e-09, global = 3.636009e-10, cumulative = 2.6779829e-08
GAMG:  Solving for p, Initial residual = 6.1806731e-05, Final residual = 9.9174327e-07, No Iterations 356
GAMG:  Solving for p, Initial residual = 4.5657479e-06, Final residual = 9.376326e-07, No Iterations 4
time step continuity errors : sum local = 4.9174394e-09, global = -3.3328481e-10, cumulative = 2.6446544e-08
ExecutionTime = 180.53 s  ClockTime = 181 s

fieldMinMax minmaxdomain output:
    min(p) = 0 at location (-0.000525 0 0.216)
    max(p) = 18.903259 at location (-0.00014395116 0.0014503614 0.0015)
    min(U) = (-7.962948e-05 4.8671081e-05 0.15064721) at location (-0.00014395116 -0.0014503614 0.0075)
    max(U) = (0.007399652 0.071202162 1.3379149) at location (-0.00010410186 -0.0011123239 0.0015)

Time = 0.018

Courant Number mean: 0.24311183 max: 0.59924134
smoothSolver:  Solving for Ux, Initial residual = 0.0012091415, Final residual = 4.4831387e-09, No Iterations 9
smoothSolver:  Solving for Uy, Initial residual = 0.0012091543, Final residual = 6.3285024e-09, No Iterations 9
smoothSolver:  Solving for Uz, Initial residual = 0.00067123554, Final residual = 6.6580806e-09, No Iterations 9
GAMG:  Solving for p, Initial residual = 0.00010566812, Final residual = 1.0397798e-06, No Iterations 380
GAMG:  Solving for p, Initial residual = 6.4366493e-06, Final residual = 9.9234852e-07, No Iterations 4
time step continuity errors : sum local = 5.1850492e-09, global = 3.57471e-10, cumulative = 2.6804015e-08
GAMG:  Solving for p, Initial residual = 5.6587628e-05, Final residual = 9.7714984e-07, No Iterations 350
GAMG:  Solving for p, Initial residual = 4.1880596e-06, Final residual = 9.234873e-07, No Iterations 4
time step continuity errors : sum local = 4.8362394e-09, global = -3.2803394e-10, cumulative = 2.6475981e-08
ExecutionTime = 184.47 s  ClockTime = 185 s

fieldMinMax minmaxdomain output:
    min(p) = 0 at location (-0.000525 0 0.216)
    max(p) = 18.877455 at location (-0.00014395116 0.0014503614 0.0015)
    min(U) = (-7.9600634e-05 4.8717283e-05 0.15064569) at location (-0.00014395116 -0.0014503614 0.0075)
    max(U) = (0.0073998475 0.071204908 1.3379284) at location (-0.00010410186 -0.0011123239 0.0015)

Time = 0.0185

Courant Number mean: 0.24312376 max: 0.59925283
smoothSolver:  Solving for Ux, Initial residual = 0.0011045203, Final residual = 4.0736702e-09, No Iterations 9
smoothSolver:  Solving for Uy, Initial residual = 0.0011045294, Final residual = 5.7504713e-09, No Iterations 9
smoothSolver:  Solving for Uz, Initial residual = 0.00060992483, Final residual = 6.0480459e-09, No Iterations 9
GAMG:  Solving for p, Initial residual = 9.5865678e-05, Final residual = 9.9789113e-07, No Iterations 376
GAMG:  Solving for p, Initial residual = 5.8515995e-06, Final residual = 9.5097437e-07, No Iterations 4
time step continuity errors : sum local = 4.9633211e-09, global = 3.4238791e-10, cumulative = 2.6818369e-08
GAMG:  Solving for p, Initial residual = 5.1630651e-05, Final residual = 9.9145262e-07, No Iterations 342
GAMG:  Solving for p, Initial residual = 3.8733093e-06, Final residual = 9.3665754e-07, No Iterations 4
time step continuity errors : sum local = 4.8987269e-09, global = -3.324542e-10, cumulative = 2.6485915e-08
ExecutionTime = 188.01 s  ClockTime = 189 s

fieldMinMax minmaxdomain output:
    min(p) = 0 at location (-0.000525 0 0.216)
    max(p) = 18.854067 at location (-0.00014395116 0.0014503614 0.0015)
    min(U) = (-7.9576055e-05 4.8764156e-05 0.1506441) at location (-0.00014395116 -0.0014503614 0.0075)
    max(U) = (0.0074000068 0.071207107 1.3379415) at location (-0.00010410186 -0.0011123239 0.0015)

Time = 0.019

Courant Number mean: 0.24313467 max: 0.59926205
smoothSolver:  Solving for Ux, Initial residual = 0.0010049545, Final residual = 3.7020138e-09, No Iterations 9
smoothSolver:  Solving for Uy, Initial residual = 0.0010049626, Final residual = 5.2341925e-09, No Iterations 9
smoothSolver:  Solving for Uz, Initial residual = 0.00055427011, Final residual = 5.4943273e-09, No Iterations 9
GAMG:  Solving for p, Initial residual = 8.7595533e-05, Final residual = 9.8464947e-07, No Iterations 370
GAMG:  Solving for p, Initial residual = 5.3542599e-06, Final residual = 9.3704793e-07, No Iterations 4
time step continuity errors : sum local = 4.8856652e-09, global = 3.3706933e-10, cumulative = 2.6822984e-08
GAMG:  Solving for p, Initial residual = 4.7144041e-05, Final residual = 9.7671895e-07, No Iterations 336
GAMG:  Solving for p, Initial residual = 3.5739947e-06, Final residual = 9.2268076e-07, No Iterations 4
time step continuity errors : sum local = 4.819818e-09, global = -3.2760386e-10, cumulative = 2.649538e-08
ExecutionTime = 191.62 s  ClockTime = 192 s

fieldMinMax minmaxdomain output:
    min(p) = 0 at location (-0.000525 0 0.216)
    max(p) = 18.832869 at location (-0.00014395116 0.0014503614 0.0015)
    min(U) = (-7.9555953e-05 4.8809361e-05 0.15064272) at location (-0.00014395116 -0.0014503614 0.0075)
    max(U) = (0.0074001375 0.071208867 1.3379535) at location (-0.00010410186 -0.0011123239 0.0015)

Time = 0.0195

Courant Number mean: 0.24314466 max: 0.59926944
smoothSolver:  Solving for Ux, Initial residual = 0.00091562013, Final residual = 3.368104e-09, No Iterations 9
smoothSolver:  Solving for Uy, Initial residual = 0.0009156473, Final residual = 4.7722868e-09, No Iterations 9
smoothSolver:  Solving for Uz, Initial residual = 0.00050378573, Final residual = 4.9917622e-09, No Iterations 9
GAMG:  Solving for p, Initial residual = 8.0667943e-05, Final residual = 9.9972008e-07, No Iterations 362
GAMG:  Solving for p, Initial residual = 4.935089e-06, Final residual = 9.5023706e-07, No Iterations 4
time step continuity errors : sum local = 4.949829e-09, global = 3.4149799e-10, cumulative = 2.6836878e-08
GAMG:  Solving for p, Initial residual = 4.2939339e-05, Final residual = 9.8972015e-07, No Iterations 328
GAMG:  Solving for p, Initial residual = 3.3388107e-06, Final residual = 9.3491447e-07, No Iterations 4
time step continuity errors : sum local = 4.8783517e-09, global = -3.3195206e-10, cumulative = 2.6504926e-08
ExecutionTime = 195.27 s  ClockTime = 196 s

fieldMinMax minmaxdomain output:
    min(p) = 0 at location (-0.000525 0 0.216)
    max(p) = 18.813636 at location (-0.00014395116 0.0014503614 0.0015)
    min(U) = (-7.9540154e-05 -4.8851208e-05 0.15064167) at location (-0.00014395116 0.0014503614 0.0075)
    max(U) = (0.0074002456 0.07121028 1.3379642) at location (-0.00010410186 -0.0011123239 0.0015)

Time = 0.02

Courant Number mean: 0.24315378 max: 0.59927539
smoothSolver:  Solving for Ux, Initial residual = 0.00084008021, Final residual = 3.0741078e-09, No Iterations 9
smoothSolver:  Solving for Uy, Initial residual = 0.00084013238, Final residual = 4.347172e-09, No Iterations 9
smoothSolver:  Solving for Uz, Initial residual = 0.00045796611, Final residual = 4.535434e-09, No Iterations 9
GAMG:  Solving for p, Initial residual = 7.4138122e-05, Final residual = 9.8533806e-07, No Iterations 356
GAMG:  Solving for p, Initial residual = 4.5700486e-06, Final residual = 9.3590722e-07, No Iterations 4
time step continuity errors : sum local = 4.8710555e-09, global = 3.3655225e-10, cumulative = 2.6841479e-08
GAMG:  Solving for p, Initial residual = 3.9500963e-05, Final residual = 9.7383802e-07, No Iterations 322
GAMG:  Solving for p, Initial residual = 3.1157647e-06, Final residual = 9.8813452e-07, No Iterations 2
time step continuity errors : sum local = 5.1508852e-09, global = -3.3546121e-10, cumulative = 2.6506017e-08
ExecutionTime = 199.05 s  ClockTime = 200 s

fieldMinMax minmaxdomain output:
    min(p) = 0 at location (-0.000525 0 0.216)
    max(p) = 18.796195 at location (-0.00014395116 0.0014503614 0.0015)
    min(U) = (-7.952828e-05 4.888859e-05 0.15064101) at location (-0.00014395116 -0.0014503614 0.0075)
    max(U) = (0.0074003358 0.07121142 1.3379732) at location (-0.00010410186 -0.0011123239 0.0015)

Time = 0.0205

Courant Number mean: 0.24316213 max: 0.59928021
smoothSolver:  Solving for Ux, Initial residual = 0.00076975386, Final residual = 2.799381e-09, No Iterations 9
smoothSolver:  Solving for Uy, Initial residual = 0.00076982363, Final residual = 3.9593094e-09, No Iterations 9
smoothSolver:  Solving for Uz, Initial residual = 0.00041632032, Final residual = 4.1212758e-09, No Iterations 9
GAMG:  Solving for p, Initial residual = 6.8014064e-05, Final residual = 9.9937945e-07, No Iterations 348
GAMG:  Solving for p, Initial residual = 4.2508557e-06, Final residual = 9.4868299e-07, No Iterations 4
time step continuity errors : sum local = 4.9337325e-09, global = 3.4134667e-10, cumulative = 2.6847364e-08
GAMG:  Solving for p, Initial residual = 3.6355621e-05, Final residual = 9.8530985e-07, No Iterations 314
GAMG:  Solving for p, Initial residual = 2.9346768e-06, Final residual = 9.9334704e-07, No Iterations 2
time step continuity errors : sum local = 5.1733169e-09, global = -3.3984734e-10, cumulative = 2.6507517e-08
ExecutionTime = 202.72 s  ClockTime = 203 s

fieldMinMax minmaxdomain output:
    min(p) = 0 at location (-0.000525 0 0.216)
    max(p) = 18.780366 at location (-0.00014395116 0.0014503614 0.0015)
    min(U) = (-7.9519681e-05 -4.8920992e-05 0.15064072) at location (-0.00014395116 0.0014503614 0.0075)
    max(U) = (0.0074004118 0.071212349 1.3379807) at location (-0.00010410186 -0.0011123239 0.0015)

Time = 0.021

Courant Number mean: 0.24316976 max: 0.59928414
smoothSolver:  Solving for Ux, Initial residual = 0.00070165321, Final residual = 9.5914202e-09, No Iterations 8
smoothSolver:  Solving for Uy, Initial residual = 0.00070172469, Final residual = 3.6146618e-09, No Iterations 9
smoothSolver:  Solving for Uz, Initial residual = 0.00037848246, Final residual = 3.7448814e-09, No Iterations 9
GAMG:  Solving for p, Initial residual = 6.2249766e-05, Final residual = 9.8446998e-07, No Iterations 342
GAMG:  Solving for p, Initial residual = 3.9604096e-06, Final residual = 9.341635e-07, No Iterations 4
time step continuity errors : sum local = 4.8547947e-09, global = 3.3674192e-10, cumulative = 2.6844259e-08
GAMG:  Solving for p, Initial residual = 3.3245626e-05, Final residual = 9.9651362e-07, No Iterations 306
GAMG:  Solving for p, Initial residual = 2.7831686e-06, Final residual = 9.993757e-07, No Iterations 2
time step continuity errors : sum local = 5.2003642e-09, global = -3.4430345e-10, cumulative = 2.6499955e-08
ExecutionTime = 206.39 s  ClockTime = 207 s

fieldMinMax minmaxdomain output:
    min(p) = 0 at location (-0.000525 0 0.216)
    max(p) = 18.766003 at location (-0.00014395116 0.0014503614 0.0015)
    min(U) = (-7.9513859e-05 -4.894829e-05 0.15064076) at location (-0.00014395116 0.0014503614 0.0075)
    max(U) = (0.0074004766 0.071213115 1.3379866) at location (-0.00010410186 -0.0011123239 0.0015)

Time = 0.0215

Courant Number mean: 0.24317674 max: 0.59928739
smoothSolver:  Solving for Ux, Initial residual = 0.00063799673, Final residual = 8.7415682e-09, No Iterations 8
smoothSolver:  Solving for Uy, Initial residual = 0.00063803553, Final residual = 3.3011006e-09, No Iterations 9
smoothSolver:  Solving for Uz, Initial residual = 0.00034415063, Final residual = 3.4030679e-09, No Iterations 9
GAMG:  Solving for p, Initial residual = 5.6706418e-05, Final residual = 9.9753527e-07, No Iterations 334
GAMG:  Solving for p, Initial residual = 3.7039754e-06, Final residual = 9.4620057e-07, No Iterations 4
time step continuity errors : sum local = 4.9141856e-09, global = 3.4168162e-10, cumulative = 2.6841637e-08
GAMG:  Solving for p, Initial residual = 3.052391e-05, Final residual = 9.7881204e-07, No Iterations 300
GAMG:  Solving for p, Initial residual = 2.6207725e-06, Final residual = 9.7857689e-07, No Iterations 2
time step continuity errors : sum local = 5.0882555e-09, global = -3.3915653e-10, cumulative = 2.650248e-08
ExecutionTime = 210.03 s  ClockTime = 211 s

fieldMinMax minmaxdomain output:
    min(p) = 0 at location (-0.000525 0 0.216)
    max(p) = 18.752969 at location (-0.00014395116 0.0014503614 0.0015)
    min(U) = (-7.9510185e-05 -4.8970708e-05 0.15064107) at location (-0.00014395116 0.0014503614 0.0075)
    max(U) = (0.0074005322 0.071213754 1.3379913) at location (-0.00010410186 -0.0011123239 0.0015)

Time = 0.022

Courant Number mean: 0.24318313 max: 0.5992901
smoothSolver:  Solving for Ux, Initial residual = 0.00058610713, Final residual = 7.9788676e-09, No Iterations 8
smoothSolver:  Solving for Uy, Initial residual = 0.00058615369, Final residual = 3.0094506e-09, No Iterations 9
smoothSolver:  Solving for Uz, Initial residual = 0.00031294297, Final residual = 3.0927078e-09, No Iterations 9
GAMG:  Solving for p, Initial residual = 5.1774158e-05, Final residual = 9.8268164e-07, No Iterations 328
GAMG:  Solving for p, Initial residual = 3.4626092e-06, Final residual = 9.3188776e-07, No Iterations 4
time step continuity errors : sum local = 4.8369982e-09, global = 3.3750291e-10, cumulative = 2.6839983e-08
GAMG:  Solving for p, Initial residual = 2.8178505e-05, Final residual = 9.896663e-07, No Iterations 292
GAMG:  Solving for p, Initial residual = 2.4980697e-06, Final residual = 9.8583071e-07, No Iterations 2
time step continuity errors : sum local = 5.1224029e-09, global = -3.438554e-10, cumulative = 2.6496128e-08
ExecutionTime = 213.37 s  ClockTime = 214 s

fieldMinMax minmaxdomain output:
    min(p) = 0 at location (-0.000525 0 0.216)
    max(p) = 18.741131 at location (-0.00014395116 0.0014503614 0.0015)
    min(U) = (-7.9508107e-05 -4.8988685e-05 0.15064155) at location (-0.00014395116 0.0014503614 0.0075)
    max(U) = (0.0074005802 0.071214296 1.3379949) at location (-0.00010410186 -0.0011123239 0.0015)

Time = 0.0225

Courant Number mean: 0.24318897 max: 0.5992924
smoothSolver:  Solving for Ux, Initial residual = 0.00053775092, Final residual = 7.297757e-09, No Iterations 8
smoothSolver:  Solving for Uy, Initial residual = 0.0005377829, Final residual = 9.9125224e-09, No Iterations 8
smoothSolver:  Solving for Uz, Initial residual = 0.00028455815, Final residual = 9.4276293e-09, No Iterations 8
GAMG:  Solving for p, Initial residual = 4.7562407e-05, Final residual = 9.9414435e-07, No Iterations 320
GAMG:  Solving for p, Initial residual = 3.2806602e-06, Final residual = 9.4253859e-07, No Iterations 4
time step continuity errors : sum local = 4.889663e-09, global = 3.4224813e-10, cumulative = 2.6838376e-08
GAMG:  Solving for p, Initial residual = 2.5946401e-05, Final residual = 9.9779244e-07, No Iterations 284
GAMG:  Solving for p, Initial residual = 2.393376e-06, Final residual = 9.9122281e-07, No Iterations 2
time step continuity errors : sum local = 5.1471502e-09, global = -3.4771112e-10, cumulative = 2.6490665e-08
ExecutionTime = 216.32 s  ClockTime = 217 s

fieldMinMax minmaxdomain output:
    min(p) = 0 at location (-0.000525 0 0.216)
    max(p) = 18.730383 at location (-0.00014395116 0.0014503614 0.0015)
    min(U) = (-7.9507146e-05 -4.9002788e-05 0.15064216) at location (-0.00014395116 0.0014503614 0.0075)
    max(U) = (0.0074006218 0.07121476 1.3379976) at location (-0.00010410186 -0.0011123239 0.0015)

Time = 0.023

Courant Number mean: 0.24319432 max: 0.59929437
smoothSolver:  Solving for Ux, Initial residual = 0.00049105241, Final residual = 6.6582789e-09, No Iterations 8
smoothSolver:  Solving for Uy, Initial residual = 0.00049105278, Final residual = 9.0431688e-09, No Iterations 8
smoothSolver:  Solving for Uz, Initial residual = 0.00025878543, Final residual = 8.5691549e-09, No Iterations 8
GAMG:  Solving for p, Initial residual = 4.3697358e-05, Final residual = 9.7772729e-07, No Iterations 314
GAMG:  Solving for p, Initial residual = 3.0865577e-06, Final residual = 9.9405943e-07, No Iterations 2
time step continuity errors : sum local = 5.1544138e-09, global = 3.4644897e-10, cumulative = 2.6837114e-08
GAMG:  Solving for p, Initial residual = 2.3878042e-05, Final residual = 9.7786117e-07, No Iterations 278
GAMG:  Solving for p, Initial residual = 2.2668869e-06, Final residual = 9.7024648e-07, No Iterations 2
time step continuity errors : sum local = 5.0353049e-09, global = -3.4212939e-10, cumulative = 2.6494984e-08
ExecutionTime = 219.79 s  ClockTime = 220 s

fieldMinMax minmaxdomain output:
    min(p) = 0 at location (-0.000525 0 0.216)
    max(p) = 18.720626 at location (-0.00014395116 0.0014503614 0.0015)
    min(U) = (-7.9506911e-05 -4.9013635e-05 0.15064281) at location (-0.00014395116 0.0014503614 0.0075)
    max(U) = (0.007400658 0.071215162 1.3379996) at location (-0.00010410186 -0.0011123239 0.0015)

Time = 0.0235

Courant Number mean: 0.24319921 max: 0.59929608
smoothSolver:  Solving for Ux, Initial residual = 0.00044840388, Final residual = 6.071607e-09, No Iterations 8
smoothSolver:  Solving for Uy, Initial residual = 0.00044850137, Final residual = 8.2587601e-09, No Iterations 8
smoothSolver:  Solving for Uz, Initial residual = 0.00023537006, Final residual = 7.7884259e-09, No Iterations 8
GAMG:  Solving for p, Initial residual = 4.0219271e-05, Final residual = 9.8978593e-07, No Iterations 306
GAMG:  Solving for p, Initial residual = 2.9184457e-06, Final residual = 9.3818371e-07, No Iterations 4
time step continuity errors : sum local = 4.8625101e-09, global = 3.4298863e-10, cumulative = 2.6837973e-08
GAMG:  Solving for p, Initial residual = 2.1982732e-05, Final residual = 9.8738016e-07, No Iterations 270
GAMG:  Solving for p, Initial residual = 2.1833391e-06, Final residual = 9.7808088e-07, No Iterations 2
time step continuity errors : sum local = 5.0732769e-09, global = -3.4663873e-10, cumulative = 2.6491334e-08
ExecutionTime = 222.85 s  ClockTime = 223 s

fieldMinMax minmaxdomain output:
    min(p) = 0 at location (-0.000525 0 0.216)
    max(p) = 18.711761 at location (-0.00014395116 0.0014503614 0.0015)
    min(U) = (-7.9507067e-05 -4.9021848e-05 0.15064347) at location (-0.00014395116 0.0014503614 0.0075)
    max(U) = (0.0074006895 0.071215513 1.3380011) at location (-0.00010410186 -0.0011123239 0.0015)

Time = 0.024

Courant Number mean: 0.24320368 max: 0.59929756
smoothSolver:  Solving for Ux, Initial residual = 0.00041209435, Final residual = 5.554236e-09, No Iterations 8
smoothSolver:  Solving for Uy, Initial residual = 0.00041226871, Final residual = 7.553898e-09, No Iterations 8
smoothSolver:  Solving for Uz, Initial residual = 0.00021405482, Final residual = 7.079069e-09, No Iterations 8
GAMG:  Solving for p, Initial residual = 3.7212219e-05, Final residual = 9.7267839e-07, No Iterations 300
GAMG:  Solving for p, Initial residual = 2.7680174e-06, Final residual = 9.8377769e-07, No Iterations 2
time step continuity errors : sum local = 5.09674e-09, global = 3.4727202e-10, cumulative = 2.6838606e-08
GAMG:  Solving for p, Initial residual = 2.0343036e-05, Final residual = 9.9456782e-07, No Iterations 262
GAMG:  Solving for p, Initial residual = 2.1079592e-06, Final residual = 9.8396706e-07, No Iterations 2
time step continuity errors : sum local = 5.1013431e-09, global = -3.5033088e-10, cumulative = 2.6488275e-08
ExecutionTime = 226.24 s  ClockTime = 227 s

fieldMinMax minmaxdomain output:
    min(p) = 0 at location (-0.000525 0 0.216)
    max(p) = 18.703709 at location (-0.00014395116 0.0014503614 0.0015)
    min(U) = (-7.9507423e-05 -4.9027992e-05 0.1506441) at location (-0.00014395116 0.0014503614 0.0075)
    max(U) = (0.0074007169 0.071215821 1.3380022) at location (-0.00010410186 -0.0011123239 0.0015)

Time = 0.0245

Courant Number mean: 0.24320778 max: 0.59929887
smoothSolver:  Solving for Ux, Initial residual = 0.00037736972, Final residual = 5.0798794e-09, No Iterations 8
smoothSolver:  Solving for Uy, Initial residual = 0.00037759834, Final residual = 6.901331e-09, No Iterations 8
smoothSolver:  Solving for Uz, Initial residual = 0.00019466152, Final residual = 6.4346288e-09, No Iterations 8
GAMG:  Solving for p, Initial residual = 3.4258139e-05, Final residual = 9.8299892e-07, No Iterations 292
GAMG:  Solving for p, Initial residual = 2.6403077e-06, Final residual = 9.9131618e-07, No Iterations 2
time step continuity errors : sum local = 5.1338839e-09, global = 3.5215339e-10, cumulative = 2.6840429e-08
GAMG:  Solving for p, Initial residual = 1.8841928e-05, Final residual = 9.7308431e-07, No Iterations 256
GAMG:  Solving for p, Initial residual = 2.0127521e-06, Final residual = 9.625934e-07, No Iterations 2
time step continuity errors : sum local = 4.9883322e-09, global = -3.4408344e-10, cumulative = 2.6496345e-08
ExecutionTime = 229.88 s  ClockTime = 231 s

fieldMinMax minmaxdomain output:
    min(p) = 0 at location (-0.000525 0 0.216)
    max(p) = 18.6964 at location (-0.00014395116 0.0014503614 0.0015)
    min(U) = (-7.9507788e-05 -4.9032575e-05 0.15064467) at location (-0.00014395116 0.0014503614 0.0075)
    max(U) = (0.0074007406 0.071216092 1.3380032) at location (-0.00010410186 -0.0011123239 0.0015)

Time = 0.025

Courant Number mean: 0.24321152 max: 0.59930001
smoothSolver:  Solving for Ux, Initial residual = 0.00034415679, Final residual = 4.6350092e-09, No Iterations 8
smoothSolver:  Solving for Uy, Initial residual = 0.00034444599, Final residual = 6.3042539e-09, No Iterations 8
smoothSolver:  Solving for Uz, Initial residual = 0.00017705265, Final residual = 5.8485425e-09, No Iterations 8
GAMG:  Solving for p, Initial residual = 3.1527122e-05, Final residual = 9.9492753e-07, No Iterations 284
GAMG:  Solving for p, Initial residual = 2.5244172e-06, Final residual = 9.4283241e-07, No Iterations 4
time step continuity errors : sum local = 4.8811342e-09, global = 3.4821802e-10, cumulative = 2.6844563e-08
GAMG:  Solving for p, Initial residual = 1.7361681e-05, Final residual = 9.8211584e-07, No Iterations 248
GAMG:  Solving for p, Initial residual = 1.9526518e-06, Final residual = 9.7062207e-07, No Iterations 2
time step continuity errors : sum local = 5.0279158e-09, global = -3.4824364e-10, cumulative = 2.649632e-08
ExecutionTime = 232.95 s  ClockTime = 234 s

fieldMinMax minmaxdomain output:
    min(p) = 0 at location (-0.000525 0 0.216)
    max(p) = 18.689756 at location (0.00014395116 -0.0014503614 0.0015)
    min(U) = (-7.9508068e-05 -4.9036021e-05 0.15064518) at location (-0.00014395116 0.0014503614 0.0075)
    max(U) = (0.0074007611 0.071216329 1.3380039) at location (-0.00010410186 -0.0011123239 0.0015)

Time = 0.0255

Courant Number mean: 0.24321495 max: 0.59930101
smoothSolver:  Solving for Ux, Initial residual = 0.00031525063, Final residual = 4.2343795e-09, No Iterations 8
smoothSolver:  Solving for Uy, Initial residual = 0.00031560306, Final residual = 5.7696726e-09, No Iterations 8
smoothSolver:  Solving for Uz, Initial residual = 0.00016103564, Final residual = 5.31555e-09, No Iterations 8
GAMG:  Solving for p, Initial residual = 2.8985845e-05, Final residual = 9.7764458e-07, No Iterations 278
GAMG:  Solving for p, Initial residual = 2.4024877e-06, Final residual = 9.8263494e-07, No Iterations 2
time step continuity errors : sum local = 5.0856179e-09, global = 3.5248605e-10, cumulative = 2.6848806e-08
GAMG:  Solving for p, Initial residual = 1.6073064e-05, Final residual = 9.888507e-07, No Iterations 240
GAMG:  Solving for p, Initial residual = 1.8968486e-06, Final residual = 9.7627062e-07, No Iterations 2
time step continuity errors : sum local = 5.0553177e-09, global = -3.5119802e-10, cumulative = 2.6497608e-08
ExecutionTime = 235.75 s  ClockTime = 236 s

fieldMinMax minmaxdomain output:
    min(p) = 0 at location (-0.000525 0 0.216)
    max(p) = 18.68372 at location (-0.00014395116 0.0014503614 0.0015)
    min(U) = (-7.9508233e-05 4.9038665e-05 0.1506456) at location (-0.00014395116 -0.0014503614 0.0075)
    max(U) = (0.0074007788 0.071216538 1.3380046) at location (-0.00010410186 -0.0011123239 0.0015)

Time = 0.026

Courant Number mean: 0.24321808 max: 0.59930189
smoothSolver:  Solving for Ux, Initial residual = 0.00028873015, Final residual = 3.8766614e-09, No Iterations 8
smoothSolver:  Solving for Uy, Initial residual = 0.00028909324, Final residual = 5.2781684e-09, No Iterations 8
smoothSolver:  Solving for Uz, Initial residual = 0.00014645529, Final residual = 4.8314234e-09, No Iterations 8
GAMG:  Solving for p, Initial residual = 2.6681647e-05, Final residual = 9.8860114e-07, No Iterations 270
GAMG:  Solving for p, Initial residual = 2.3085615e-06, Final residual = 9.9143325e-07, No Iterations 2
time step continuity errors : sum local = 5.1297054e-09, global = 3.5698327e-10, cumulative = 2.6854591e-08
GAMG:  Solving for p, Initial residual = 1.494475e-05, Final residual = 9.9671342e-07, No Iterations 232
GAMG:  Solving for p, Initial residual = 1.8447691e-06, Final residual = 9.8263024e-07, No Iterations 2
time step continuity errors : sum local = 5.086545e-09, global = -3.5380182e-10, cumulative = 2.6500789e-08
ExecutionTime = 238.56 s  ClockTime = 239 s

fieldMinMax minmaxdomain output:
    min(p) = 0 at location (-0.000525 0 0.216)
    max(p) = 18.678237 at location (0.00014395116 -0.0014503614 0.0015)
    min(U) = (-7.9508247e-05 4.9040762e-05 0.15064595) at location (-0.00014395116 -0.0014503614 0.0075)
    max(U) = (0.0074007939 0.07121672 1.3380052) at location (-0.00010410186 -0.0011123239 0.0015)

Time = 0.0265

Courant Number mean: 0.24322094 max: 0.59930265
smoothSolver:  Solving for Ux, Initial residual = 0.00026405161, Final residual = 3.542392e-09, No Iterations 8
smoothSolver:  Solving for Uy, Initial residual = 0.00026441174, Final residual = 4.8230729e-09, No Iterations 8
smoothSolver:  Solving for Uz, Initial residual = 0.00013320152, Final residual = 4.3914237e-09, No Iterations 8
GAMG:  Solving for p, Initial residual = 2.4640346e-05, Final residual = 9.7345444e-07, No Iterations 264
GAMG:  Solving for p, Initial residual = 2.2031558e-06, Final residual = 9.7446797e-07, No Iterations 2
time step continuity errors : sum local = 5.0406244e-09, global = 3.5146368e-10, cumulative = 2.6852253e-08
GAMG:  Solving for p, Initial residual = 1.3847837e-05, Final residual = 9.7936107e-07, No Iterations 226
GAMG:  Solving for p, Initial residual = 1.7720898e-06, Final residual = 9.6388372e-07, No Iterations 2
time step continuity errors : sum local = 4.9879812e-09, global = -3.4680903e-10, cumulative = 2.6505444e-08
ExecutionTime = 241.19 s  ClockTime = 242 s

fieldMinMax minmaxdomain output:
    min(p) = 0 at location (-0.000525 0 0.216)
    max(p) = 18.673264 at location (0.00014395116 -0.0014503614 0.0015)
    min(U) = (-7.9508122e-05 4.9042505e-05 0.15064623) at location (-0.00014395116 -0.0014503614 0.0075)
    max(U) = (0.0074008069 0.071216878 1.3380057) at location (-0.00010410186 -0.0011123239 0.0015)

Time = 0.027

Courant Number mean: 0.24322356 max: 0.59930332
smoothSolver:  Solving for Ux, Initial residual = 0.00024127006, Final residual = 3.2326115e-09, No Iterations 8
smoothSolver:  Solving for Uy, Initial residual = 0.00024162504, Final residual = 4.4098189e-09, No Iterations 8
smoothSolver:  Solving for Uz, Initial residual = 0.00012115465, Final residual = 3.991117e-09, No Iterations 8
GAMG:  Solving for p, Initial residual = 2.2667518e-05, Final residual = 9.9230392e-07, No Iterations 256
GAMG:  Solving for p, Initial residual = 2.1216507e-06, Final residual = 9.883153e-07, No Iterations 2
time step continuity errors : sum local = 5.1110436e-09, global = 3.5679424e-10, cumulative = 2.6862238e-08
GAMG:  Solving for p, Initial residual = 1.2794719e-05, Final residual = 9.9356183e-07, No Iterations 218
GAMG:  Solving for p, Initial residual = 1.7291471e-06, Final residual = 9.7445767e-07, No Iterations 2
time step continuity errors : sum local = 5.0412913e-09, global = -3.4976135e-10, cumulative = 2.6512477e-08
ExecutionTime = 243.8 s  ClockTime = 244 s

fieldMinMax minmaxdomain output:
    min(p) = 0 at location (-0.000525 0 0.216)
    max(p) = 18.668735 at location (0.00014395116 -0.0014503614 0.0015)
    min(U) = (-7.950788e-05 4.9044023e-05 0.15064645) at location (-0.00014395116 -0.0014503614 0.0075)
    max(U) = (0.0074008179 0.071217016 1.3380062) at location (-0.00010410186 -0.0011123239 0.0015)

Time = 0.0275

Courant Number mean: 0.24322596 max: 0.5993039
smoothSolver:  Solving for Ux, Initial residual = 0.00022132988, Final residual = 2.9618758e-09, No Iterations 8
smoothSolver:  Solving for Uy, Initial residual = 0.00022172471, Final residual = 4.0389433e-09, No Iterations 8
smoothSolver:  Solving for Uz, Initial residual = 0.00011019277, Final residual = 3.6272188e-09, No Iterations 8
GAMG:  Solving for p, Initial residual = 2.0968473e-05, Final residual = 9.8002169e-07, No Iterations 250
GAMG:  Solving for p, Initial residual = 2.0336149e-06, Final residual = 9.7203259e-07, No Iterations 2
time step continuity errors : sum local = 5.0257594e-09, global = 3.5040717e-10, cumulative = 2.6862884e-08
GAMG:  Solving for p, Initial residual = 1.1922243e-05, Final residual = 9.7653025e-07, No Iterations 212
GAMG:  Solving for p, Initial residual = 1.6663784e-06, Final residual = 9.558782e-07, No Iterations 2
time step continuity errors : sum local = 4.9439156e-09, global = -3.4172584e-10, cumulative = 2.6521158e-08
ExecutionTime = 245.88 s  ClockTime = 247 s

fieldMinMax minmaxdomain output:
    min(p) = 0 at location (-0.000525 0 0.216)
[...]
smoothSolver:  Solving for Uy, Initial residual = 6.0127524e-06, Final residual = 7.1465406e-09, No Iterations 5
smoothSolver:  Solving for Uz, Initial residual = 1.3989787e-07, Final residual = 7.143525e-09, No Iterations 2
GAMG:  Solving for p, Initial residual = 5.3505255e-06, Final residual = 9.9665248e-07, No Iterations 56
GAMG:  Solving for p, Initial residual = 1.3769955e-06, Final residual = 9.8828452e-07, No Iterations 1
time step continuity errors : sum local = 5.0979071e-09, global = -2.1356232e-10, cumulative = 2.6366843e-08
GAMG:  Solving for p, Initial residual = 1.9792723e-06, Final residual = 9.494218e-07, No Iterations 20
GAMG:  Solving for p, Initial residual = 1.0217056e-06, Final residual = 9.7955178e-07, No Iterations 1
time step continuity errors : sum local = 5.052851e-09, global = 2.1225866e-10, cumulative = 2.6579101e-08
ExecutionTime = 430.52 s  ClockTime = 431 s

fieldMinMax minmaxdomain output:
    min(p) = 0 at location (-0.000525 0 0.216)
    max(p) = 18.624211 at location (0.00014395116 -0.0014503614 0.0015)
    min(U) = (-7.950338e-05 4.9058293e-05 0.15064742) at location (-0.00014395116 -0.0014503614 0.0075)
    max(U) = (0.0074008845 0.071217846 1.338011) at location (-0.00010410186 -0.0011123239 0.0015)

Time = 0.194

Courant Number mean: 0.24325135 max: 0.59930739
smoothSolver:  Solving for Ux, Initial residual = 5.6273011e-06, Final residual = 5.1217904e-09, No Iterations 5
smoothSolver:  Solving for Uy, Initial residual = 6.072474e-06, Final residual = 7.2751886e-09, No Iterations 5
smoothSolver:  Solving for Uz, Initial residual = 1.4032836e-07, Final residual = 7.121183e-09, No Iterations 2
GAMG:  Solving for p, Initial residual = 5.436052e-06, Final residual = 9.9974644e-07, No Iterations 56
GAMG:  Solving for p, Initial residual = 1.3824308e-06, Final residual = 9.5362182e-07, No Iterations 1
time step continuity errors : sum local = 4.9191069e-09, global = -2.0707175e-10, cumulative = 2.637203e-08
GAMG:  Solving for p, Initial residual = 2.0598892e-06, Final residual = 9.5491855e-07, No Iterations 19
GAMG:  Solving for p, Initial residual = 1.0334408e-06, Final residual = 9.7590671e-07, No Iterations 1
time step continuity errors : sum local = 5.0340478e-09, global = -2.0986084e-10, cumulative = 2.6162169e-08
ExecutionTime = 431.15 s  ClockTime = 432 s

fieldMinMax minmaxdomain output:
    min(p) = 0 at location (-0.000525 0 0.216)
    max(p) = 18.624219 at location (-0.00014395116 0.0014503614 0.0015)
    min(U) = (-7.9503529e-05 4.9058236e-05 0.15064741) at location (-0.00014395116 -0.0014503614 0.0075)
    max(U) = (0.0074008846 0.071217846 1.338011) at location (-0.00010410186 -0.0011123239 0.0015)

Time = 0.1945

Courant Number mean: 0.24325135 max: 0.59930739
smoothSolver:  Solving for Ux, Initial residual = 5.5569257e-06, Final residual = 5.0574019e-09, No Iterations 5
smoothSolver:  Solving for Uy, Initial residual = 5.96117e-06, Final residual = 7.2141759e-09, No Iterations 5
smoothSolver:  Solving for Uz, Initial residual = 1.3905819e-07, Final residual = 7.0731645e-09, No Iterations 2
GAMG:  Solving for p, Initial residual = 5.3985342e-06, Final residual = 9.9513579e-07, No Iterations 56
GAMG:  Solving for p, Initial residual = 1.3715223e-06, Final residual = 9.5287495e-07, No Iterations 1
time step continuity errors : sum local = 4.9152532e-09, global = 2.0856639e-10, cumulative = 2.6370735e-08
GAMG:  Solving for p, Initial residual = 2.0444105e-06, Final residual = 9.9651004e-07, No Iterations 17
GAMG:  Solving for p, Initial residual = 1.0678138e-06, Final residual = 9.363316e-07, No Iterations 2
time step continuity errors : sum local = 4.8299075e-09, global = -1.8809535e-10, cumulative = 2.618264e-08
ExecutionTime = 431.81 s  ClockTime = 433 s

fieldMinMax minmaxdomain output:
    min(p) = 0 at location (-0.000525 0 0.216)
    max(p) = 18.624212 at location (0.00014395116 -0.0014503614 0.0015)
    min(U) = (-7.9503415e-05 4.9058274e-05 0.15064742) at location (-0.00014395116 -0.0014503614 0.0075)
    max(U) = (0.0074008846 0.071217846 1.338011) at location (-0.00010410186 -0.0011123239 0.0015)

Time = 0.195

Courant Number mean: 0.24325135 max: 0.59930739
smoothSolver:  Solving for Ux, Initial residual = 5.4693592e-06, Final residual = 5.0815351e-09, No Iterations 5
smoothSolver:  Solving for Uy, Initial residual = 5.8332282e-06, Final residual = 7.0866258e-09, No Iterations 5
smoothSolver:  Solving for Uz, Initial residual = 1.4108347e-07, Final residual = 7.1134035e-09, No Iterations 2
GAMG:  Solving for p, Initial residual = 5.2906243e-06, Final residual = 9.8311688e-07, No Iterations 59
GAMG:  Solving for p, Initial residual = 1.3547147e-06, Final residual = 9.4961666e-07, No Iterations 1
time step continuity errors : sum local = 4.8984465e-09, global = -2.1184166e-10, cumulative = 2.5970798e-08
GAMG:  Solving for p, Initial residual = 2.0118224e-06, Final residual = 9.8900132e-07, No Iterations 18
GAMG:  Solving for p, Initial residual = 1.058241e-06, Final residual = 9.292971e-07, No Iterations 2
time step continuity errors : sum local = 4.7936196e-09, global = 1.8726758e-10, cumulative = 2.6158066e-08
ExecutionTime = 432.37 s  ClockTime = 433 s

fieldMinMax minmaxdomain output:
    min(p) = 0 at location (-0.000525 0 0.216)
    max(p) = 18.624218 at location (-0.00014395116 0.0014503614 0.0015)
    min(U) = (-7.9503494e-05 4.9058255e-05 0.15064741) at location (-0.00014395116 -0.0014503614 0.0075)
    max(U) = (0.0074008846 0.071217846 1.338011) at location (-0.00010410186 -0.0011123239 0.0015)

Time = 0.1955

Courant Number mean: 0.24325135 max: 0.59930739
smoothSolver:  Solving for Ux, Initial residual = 5.430781e-06, Final residual = 5.1791369e-09, No Iterations 5
smoothSolver:  Solving for Uy, Initial residual = 5.7336157e-06, Final residual = 6.9215761e-09, No Iterations 5
smoothSolver:  Solving for Uz, Initial residual = 1.401128e-07, Final residual = 7.0541157e-09, No Iterations 2
GAMG:  Solving for p, Initial residual = 5.2811733e-06, Final residual = 9.9317873e-07, No Iterations 59
GAMG:  Solving for p, Initial residual = 1.358558e-06, Final residual = 9.6431698e-07, No Iterations 1
time step continuity errors : sum local = 4.9742752e-09, global = 2.1846006e-10, cumulative = 2.6376526e-08
GAMG:  Solving for p, Initial residual = 1.9820649e-06, Final residual = 9.8075712e-07, No Iterations 18
GAMG:  Solving for p, Initial residual = 1.0486931e-06, Final residual = 9.9344638e-07, No Iterations 1
time step continuity errors : sum local = 5.1245254e-09, global = 2.1367016e-10, cumulative = 2.6590196e-08
ExecutionTime = 432.83 s  ClockTime = 434 s

fieldMinMax minmaxdomain output:
    min(p) = 0 at location (-0.000525 0 0.216)
    max(p) = 18.624216 at location (0.00014395116 -0.0014503614 0.0015)
    min(U) = (-7.9503442e-05 4.9058255e-05 0.15064742) at location (-0.00014395116 -0.0014503614 0.0075)
    max(U) = (0.0074008846 0.071217846 1.338011) at location (-0.00010410186 -0.0011123239 0.0015)

Time = 0.196

Courant Number mean: 0.24325135 max: 0.59930739
smoothSolver:  Solving for Ux, Initial residual = 5.586929e-06, Final residual = 5.4252832e-09, No Iterations 5
smoothSolver:  Solving for Uy, Initial residual = 5.8721309e-06, Final residual = 7.0204152e-09, No Iterations 5
smoothSolver:  Solving for Uz, Initial residual = 1.4017988e-07, Final residual = 7.1320481e-09, No Iterations 2
GAMG:  Solving for p, Initial residual = 5.3981456e-06, Final residual = 9.8429993e-07, No Iterations 54
GAMG:  Solving for p, Initial residual = 1.3657739e-06, Final residual = 9.528676e-07, No Iterations 1
time step continuity errors : sum local = 4.9152152e-09, global = 2.1198179e-10, cumulative = 2.6802178e-08
GAMG:  Solving for p, Initial residual = 2.0796531e-06, Final residual = 9.7583741e-07, No Iterations 20
GAMG:  Solving for p, Initial residual = 1.0500151e-06, Final residual = 9.778494e-07, No Iterations 1
time step continuity errors : sum local = 5.0440678e-09, global = -2.1202051e-10, cumulative = 2.6590157e-08
ExecutionTime = 433.26 s  ClockTime = 434 s

fieldMinMax minmaxdomain output:
    min(p) = 0 at location (-0.000525 0 0.216)
    max(p) = 18.624212 at location (-0.00014395116 0.0014503614 0.0015)
    min(U) = (-7.9503471e-05 4.9058268e-05 0.15064741) at location (-0.00014395116 -0.0014503614 0.0075)
    max(U) = (0.0074008846 0.071217846 1.338011) at location (-0.00010410186 -0.0011123239 0.0015)

Time = 0.1965

Courant Number mean: 0.24325135 max: 0.59930739
smoothSolver:  Solving for Ux, Initial residual = 5.5861852e-06, Final residual = 5.5254204e-09, No Iterations 5
smoothSolver:  Solving for Uy, Initial residual = 5.8663337e-06, Final residual = 6.9908229e-09, No Iterations 5
smoothSolver:  Solving for Uz, Initial residual = 1.4182593e-07, Final residual = 7.1757182e-09, No Iterations 2
GAMG:  Solving for p, Initial residual = 5.4835787e-06, Final residual = 9.9298784e-07, No Iterations 59
GAMG:  Solving for p, Initial residual = 1.3815287e-06, Final residual = 9.5662903e-07, No Iterations 1
time step continuity errors : sum local = 4.9346215e-09, global = -2.1728496e-10, cumulative = 2.6372872e-08
GAMG:  Solving for p, Initial residual = 2.0994905e-06, Final residual = 9.5595315e-07, No Iterations 20
GAMG:  Solving for p, Initial residual = 1.0340497e-06, Final residual = 9.4296611e-07, No Iterations 1
time step continuity errors : sum local = 4.8641323e-09, global = 2.0367158e-10, cumulative = 2.6576544e-08
ExecutionTime = 433.7 s  ClockTime = 435 s

fieldMinMax minmaxdomain output:
    min(p) = 0 at location (-0.000525 0 0.216)
    max(p) = 18.624221 at location (0.00014395116 -0.0014503614 0.0015)
    min(U) = (-7.9503468e-05 4.9058238e-05 0.15064742) at location (-0.00014395116 -0.0014503614 0.0075)
    max(U) = (0.0074008846 0.071217846 1.338011) at location (-0.00010410186 -0.0011123239 0.0015)

Time = 0.197

Courant Number mean: 0.24325135 max: 0.59930739
smoothSolver:  Solving for Ux, Initial residual = 5.4580263e-06, Final residual = 5.5031793e-09, No Iterations 5
smoothSolver:  Solving for Uy, Initial residual = 5.7233435e-06, Final residual = 6.8385789e-09, No Iterations 5
smoothSolver:  Solving for Uz, Initial residual = 1.4173529e-07, Final residual = 7.1823264e-09, No Iterations 2
GAMG:  Solving for p, Initial residual = 5.3957816e-06, Final residual = 9.6711268e-07, No Iterations 60
GAMG:  Solving for p, Initial residual = 1.3544016e-06, Final residual = 9.6119031e-07, No Iterations 1
time step continuity errors : sum local = 4.9581452e-09, global = -2.2412331e-10, cumulative = 2.6352421e-08
GAMG:  Solving for p, Initial residual = 2.119291e-06, Final residual = 9.7265663e-07, No Iterations 20
GAMG:  Solving for p, Initial residual = 1.0493812e-06, Final residual = 9.4743588e-07, No Iterations 1
time step continuity errors : sum local = 4.8871839e-09, global = 2.1130503e-10, cumulative = 2.6563726e-08
ExecutionTime = 434.14 s  ClockTime = 435 s

fieldMinMax minmaxdomain output:
    min(p) = 0 at location (-0.000525 0 0.216)
    max(p) = 18.624211 at location (0.00014395116 0.0014503614 0.0015)
    min(U) = (-7.9503444e-05 -4.9058285e-05 0.15064741) at location (-0.00014395116 0.0014503614 0.0075)
    max(U) = (0.0074008846 0.071217846 1.338011) at location (-0.00010410186 -0.0011123239 0.0015)

Time = 0.1975

Courant Number mean: 0.24325134 max: 0.59930739
smoothSolver:  Solving for Ux, Initial residual = 5.3383498e-06, Final residual = 5.5152736e-09, No Iterations 5
smoothSolver:  Solving for Uy, Initial residual = 5.6012149e-06, Final residual = 6.7323606e-09, No Iterations 5
smoothSolver:  Solving for Uz, Initial residual = 1.4267268e-07, Final residual = 7.2641611e-09, No Iterations 2
GAMG:  Solving for p, Initial residual = 5.2954461e-06, Final residual = 9.9566235e-07, No Iterations 59
GAMG:  Solving for p, Initial residual = 1.3656161e-06, Final residual = 9.9563539e-07, No Iterations 1
time step continuity errors : sum local = 5.1358298e-09, global = 2.3008827e-10, cumulative = 2.6793814e-08
GAMG:  Solving for p, Initial residual = 2.0349553e-06, Final residual = 9.8827181e-07, No Iterations 17
GAMG:  Solving for p, Initial residual = 1.0547627e-06, Final residual = 9.6160977e-07, No Iterations 1
time step continuity errors : sum local = 4.9603024e-09, global = 2.0787473e-10, cumulative = 2.7001689e-08
ExecutionTime = 434.6 s  ClockTime = 436 s

fieldMinMax minmaxdomain output:
    min(p) = 0 at location (-0.000525 0 0.216)
    max(p) = 18.624221 at location (-0.00014395116 -0.0014503614 0.0015)
    min(U) = (-7.9503501e-05 4.9058219e-05 0.15064742) at location (-0.00014395116 -0.0014503614 0.0075)
    max(U) = (0.0074008847 0.071217846 1.338011) at location (-0.00010410186 -0.0011123239 0.0015)

Time = 0.198

Courant Number mean: 0.24325135 max: 0.59930739
smoothSolver:  Solving for Ux, Initial residual = 5.4174966e-06, Final residual = 5.6382046e-09, No Iterations 5
smoothSolver:  Solving for Uy, Initial residual = 5.6503069e-06, Final residual = 6.8146918e-09, No Iterations 5
smoothSolver:  Solving for Uz, Initial residual = 1.4612276e-07, Final residual = 7.4053274e-09, No Iterations 2
GAMG:  Solving for p, Initial residual = 5.3491564e-06, Final residual = 9.9859645e-07, No Iterations 58
GAMG:  Solving for p, Initial residual = 1.3793385e-06, Final residual = 9.9877367e-07, No Iterations 1
time step continuity errors : sum local = 5.1520135e-09, global = -2.2759465e-10, cumulative = 2.6774094e-08
GAMG:  Solving for p, Initial residual = 2.0941306e-06, Final residual = 9.9309438e-07, No Iterations 20
GAMG:  Solving for p, Initial residual = 1.064512e-06, Final residual = 9.8769837e-07, No Iterations 1
time step continuity errors : sum local = 5.0948714e-09, global = 2.2222757e-10, cumulative = 2.6996321e-08
ExecutionTime = 435.07 s  ClockTime = 436 s

fieldMinMax minmaxdomain output:
    min(p) = 0 at location (-0.000525 0 0.216)
    max(p) = 18.62421 at location (0.00014395116 0.0014503614 0.0015)
    min(U) = (-7.9503444e-05 -4.9058284e-05 0.15064741) at location (-0.00014395116 0.0014503614 0.0075)
    max(U) = (0.0074008845 0.071217846 1.338011) at location (-0.00010410186 -0.0011123239 0.0015)

Time = 0.1985

Courant Number mean: 0.24325135 max: 0.59930739
smoothSolver:  Solving for Ux, Initial residual = 5.4638802e-06, Final residual = 5.6932073e-09, No Iterations 5
smoothSolver:  Solving for Uy, Initial residual = 5.6396274e-06, Final residual = 6.8459578e-09, No Iterations 5
smoothSolver:  Solving for Uz, Initial residual = 1.4774595e-07, Final residual = 7.5080132e-09, No Iterations 2
GAMG:  Solving for p, Initial residual = 5.4788412e-06, Final residual = 9.955218e-07, No Iterations 61
GAMG:  Solving for p, Initial residual = 1.378274e-06, Final residual = 9.9634009e-07, No Iterations 1
time step continuity errors : sum local = 5.1394661e-09, global = 2.23669e-10, cumulative = 2.721999e-08
GAMG:  Solving for p, Initial residual = 2.1105861e-06, Final residual = 9.9610002e-07, No Iterations 20
GAMG:  Solving for p, Initial residual = 1.065668e-06, Final residual = 9.935124e-07, No Iterations 1
time step continuity errors : sum local = 5.1248675e-09, global = -2.2086565e-10, cumulative = 2.6999125e-08
ExecutionTime = 435.54 s  ClockTime = 436 s

fieldMinMax minmaxdomain output:
    min(p) = 0 at location (-0.000525 0 0.216)
    max(p) = 18.62422 at location (-0.0014503614 -0.00014395116 0.0015)
    min(U) = (-7.9503519e-05 4.9058211e-05 0.15064741) at location (-0.00014395116 -0.0014503614 0.0075)
    max(U) = (0.0074008847 0.071217846 1.338011) at location (-0.00010410186 -0.0011123239 0.0015)

Time = 0.199

Courant Number mean: 0.24325135 max: 0.59930739
smoothSolver:  Solving for Ux, Initial residual = 5.4805905e-06, Final residual = 5.6886002e-09, No Iterations 5
smoothSolver:  Solving for Uy, Initial residual = 5.7227129e-06, Final residual = 6.8872832e-09, No Iterations 5
smoothSolver:  Solving for Uz, Initial residual = 1.4863959e-07, Final residual = 7.520836e-09, No Iterations 2
GAMG:  Solving for p, Initial residual = 5.5259603e-06, Final residual = 9.7258902e-07, No Iterations 63
GAMG:  Solving for p, Initial residual = 1.3614331e-06, Final residual = 9.7162834e-07, No Iterations 1
time step continuity errors : sum local = 5.011989e-09, global = -2.1510896e-10, cumulative = 2.6784016e-08
GAMG:  Solving for p, Initial residual = 2.1175598e-06, Final residual = 9.4841102e-07, No Iterations 22
GAMG:  Solving for p, Initial residual = 1.0230799e-06, Final residual = 9.5773516e-07, No Iterations 1
time step continuity errors : sum local = 4.9403119e-09, global = 2.1022678e-10, cumulative = 2.6994243e-08
ExecutionTime = 436.1 s  ClockTime = 437 s

fieldMinMax minmaxdomain output:
    min(p) = 0 at location (-0.000525 0 0.216)
    max(p) = 18.624211 at location (0.00014395116 -0.0014503614 0.0015)
    min(U) = (-7.9503447e-05 -4.9058281e-05 0.15064742) at location (-0.00014395116 0.0014503614 0.0075)
    max(U) = (0.0074008845 0.071217846 1.338011) at location (-0.00010410186 -0.0011123239 0.0015)

Time = 0.1995

Courant Number mean: 0.24325135 max: 0.59930739
smoothSolver:  Solving for Ux, Initial residual = 5.316531e-06, Final residual = 5.510494e-09, No Iterations 5
smoothSolver:  Solving for Uy, Initial residual = 5.6484845e-06, Final residual = 6.807583e-09, No Iterations 5
smoothSolver:  Solving for Uz, Initial residual = 1.4351714e-07, Final residual = 7.2222462e-09, No Iterations 2
GAMG:  Solving for p, Initial residual = 5.3916193e-06, Final residual = 9.9970706e-07, No Iterations 62
GAMG:  Solving for p, Initial residual = 1.3730889e-06, Final residual = 9.4918639e-07, No Iterations 1
time step continuity errors : sum local = 4.8962304e-09, global = -2.0603384e-10, cumulative = 2.6788209e-08
GAMG:  Solving for p, Initial residual = 2.075628e-06, Final residual = 9.741937e-07, No Iterations 21
GAMG:  Solving for p, Initial residual = 1.0412087e-06, Final residual = 9.911834e-07, No Iterations 1
time step continuity errors : sum local = 5.1128529e-09, global = -2.167396e-10, cumulative = 2.6571469e-08
ExecutionTime = 436.6 s  ClockTime = 438 s

fieldMinMax minmaxdomain output:
    min(p) = 0 at location (-0.000525 0 0.216)
    max(p) = 18.624221 at location (-0.0014503614 0.00014395116 0.0015)
    min(U) = (-7.9503531e-05 4.9058206e-05 0.15064741) at location (-0.00014395116 -0.0014503614 0.0075)
    max(U) = (0.0074008847 0.071217846 1.338011) at location (-0.00010410186 -0.0011123239 0.0015)

Time = 0.2

Courant Number mean: 0.24325135 max: 0.59930739
smoothSolver:  Solving for Ux, Initial residual = 5.3316069e-06, Final residual = 5.4705779e-09, No Iterations 5
smoothSolver:  Solving for Uy, Initial residual = 5.777446e-06, Final residual = 6.8595725e-09, No Iterations 5
smoothSolver:  Solving for Uz, Initial residual = 1.418365e-07, Final residual = 7.1713548e-09, No Iterations 2
GAMG:  Solving for p, Initial residual = 5.4131387e-06, Final residual = 9.7538963e-07, No Iterations 61
GAMG:  Solving for p, Initial residual = 1.3657752e-06, Final residual = 9.7088536e-07, No Iterations 1
time step continuity errors : sum local = 5.0081564e-09, global = -2.1108116e-10, cumulative = 2.6360388e-08
GAMG:  Solving for p, Initial residual = 2.0223817e-06, Final residual = 9.4400596e-07, No Iterations 22
GAMG:  Solving for p, Initial residual = 1.0117506e-06, Final residual = 9.6848086e-07, No Iterations 1
time step continuity errors : sum local = 4.9957428e-09, global = 2.1203543e-10, cumulative = 2.6572424e-08
ExecutionTime = 437.17 s  ClockTime = 438 s

fieldMinMax minmaxdomain output:
    min(p) = 0 at location (-0.000525 0 0.216)
    max(p) = 18.624211 at location (0.00014395116 -0.0014503614 0.0015)
    min(U) = (-7.9503446e-05 -4.905828e-05 0.15064742) at location (-0.00014395116 0.0014503614 0.0075)
    max(U) = (0.0074008845 0.071217846 1.338011) at location (-0.00010410186 -0.0011123239 0.0015)

End

