/*---------------------------------------------------------------------------*\
| =========                 |                                                 |
| \\      /  F ield         | OpenFOAM: The Open Source CFD Toolbox           |
|  \\    /   O peration     | Version:  4.x                                   |
|   \\  /    A nd           | Web:      www.OpenFOAM.org                      |
|    \\/     M anipulation  |                                                 |
\*---------------------------------------------------------------------------*/
Build  : 4.x-e964d879e2b3
Exec   : simpleFoam
Date   : Jun 27 2017
Time   : 22:59:42
Host   : "linux-ifxc"
PID    : 11071
Case   : /home/joegi/my_cases_course/40x/101FVM/cyl_ste_uns
nProcs : 1
sigFpe : Enabling floating point exception trapping (FOAM_SIGFPE).
fileModificationChecking : Monitoring run-time modified files using timeStampMaster
allowSystemOperations : Allowing user-supplied system call operations

// * * * * * * * * * * * * * * * * * * * * * * * * * * * * * * * * * * * * * //
Create time

Create mesh for time = 0


SIMPLE: convergence criteria
    field p	 tolerance 0.0001
    field U	 tolerance 0.0001
    field nuTilda	 tolerance 0.0001
    field k	 tolerance 0.0001
    field omega	 tolerance 0.0001

Reading field p

Reading field U

Reading/calculating face flux field phi

Selecting incompressible transport model Newtonian
Selecting turbulence model type laminar
No MRF models present

No finite volume options present


Starting time loop

fieldAverage fieldAverage:
    Starting averaging at time 0

forces forceCoeffs_object:
    Not including porosity effects
forceCoeffs forceCoeffs_object:
    Not including porosity effects
Time = 1

DILUPBiCGStab:  Solving for Ux, Initial residual = 0.075164736, Final residual = 5.3821469e-09, No Iterations 5
DILUPBiCGStab:  Solving for Uy, Initial residual = 0.018545112, Final residual = 4.1975695e-09, No Iterations 4
GAMG:  Solving for p, Initial residual = 1, Final residual = 0.00088828712, No Iterations 14
GAMG:  Solving for p, Initial residual = 0.024768187, Final residual = 2.3982642e-05, No Iterations 8
GAMG:  Solving for p, Initial residual = 0.004490476, Final residual = 2.0530485e-06, No Iterations 8
time step continuity errors : sum local = 1.8648996e-07, global = -3.3616666e-09, cumulative = -3.3616666e-09
ExecutionTime = 0.13 s  ClockTime = 0 s

forceCoeffs forceCoeffs_object write:
    Cm    = 0.067691188
    Cd    = 21.176284
    Cl    = 0.70405988
    Cl(f) = 0.41972113
    Cl(r) = 0.28433875

fieldMinMax minmaxdomain write:
    min(p) = -5.1865311 at location (1.033408 0.040619346 -2.5720097e-17)
    max(p) = 7.1071409 at location (-1.033408 0.040619346 0)
    min(U) = (0.72143631 -0.083262629 4.789894e-18) at location (0.7020078 0.75945223 0)
    max(U) = (0.99558895 0.31723032 6.2353098e-18) at location (0.77627858 -0.98482127 0)

Time = 2

DILUPBiCGStab:  Solving for Ux, Initial residual = 0.59367083, Final residual = 2.2268628e-09, No Iterations 5
DILUPBiCGStab:  Solving for Uy, Initial residual = 0.40165893, Final residual = 4.3700411e-09, No Iterations 5
GAMG:  Solving for p, Initial residual = 0.16365313, Final residual = 0.00010008885, No Iterations 12
GAMG:  Solving for p, Initial residual = 0.023904745, Final residual = 1.2561043e-05, No Iterations 9
GAMG:  Solving for p, Initial residual = 0.0052893989, Final residual = 2.2202779e-06, No Iterations 8
time step continuity errors : sum local = 4.891067e-08, global = 8.0951171e-09, cumulative = 4.7334505e-09
ExecutionTime = 0.17 s  ClockTime = 0 s

forceCoeffs forceCoeffs_object write:
    Cm    = 0.054580171
    Cd    = 14.797617
    Cl    = -0.049090841
    Cl(f) = 0.03003475
    Cl(r) = -0.079125592

fieldMinMax minmaxdomain write:
    min(p) = -3.3654348 at location (0.90246019 -0.50539003 -2.6009756e-17)
    max(p) = 5.0169346 at location (-1.033408 0.040619346 0)
    min(U) = (-0.019449691 -0.41171752 -7.5472341e-18) at location (1.1056584 0.40791306 1.0450822e-17)
    max(U) = (1.5300094 -0.018227785 4.5777291e-18) at location (0.13851888 1.1698851 -4.3429279e-17)

Time = 3

DILUPBiCGStab:  Solving for Ux, Initial residual = 0.208253, Final residual = 4.768064e-09, No Iterations 5
DILUPBiCGStab:  Solving for Uy, Initial residual = 0.30258686, Final residual = 3.388471e-09, No Iterations 5
GAMG:  Solving for p, Initial residual = 0.30395525, Final residual = 0.00017744684, No Iterations 13
GAMG:  Solving for p, Initial residual = 0.027163903, Final residual = 1.3307299e-05, No Iterations 9
GAMG:  Solving for p, Initial residual = 0.0050805792, Final residual = 2.0590925e-06, No Iterations 8
time step continuity errors : sum local = 1.4654108e-07, global = 1.9760095e-08, cumulative = 2.4493546e-08
ExecutionTime = 0.22 s  ClockTime = 0 s

forceCoeffs forceCoeffs_object write:
    Cm    = 0.042311542
    Cd    = -0.82254604
    Cl    = -1.0063581
    Cl(f) = -0.46086752
    Cl(r) = -0.54549061

fieldMinMax minmaxdomain write:
    min(p) = -2.5639982 at location (0.040619346 -1.033408 0)
    max(p) = 1.290956 at location (1.1698851 0.13851888 -3.3711228e-17)
    min(U) = (0.3327241 -0.32085545 -4.9871208e-18) at location (0.7020078 0.75945223 0)
    max(U) = (1.6549524 0.089859237 1.9954411e-18) at location (0.043395067 1.1038218 0)

Time = 4

DILUPBiCGStab:  Solving for Ux, Initial residual = 0.060768769, Final residual = 1.069234e-09, No Iterations 5
DILUPBiCGStab:  Solving for Uy, Initial residual = 0.094160008, Final residual = 8.4473831e-09, No Iterations 4
GAMG:  Solving for p, Initial residual = 0.49180903, Final residual = 0.00027317126, No Iterations 13
GAMG:  Solving for p, Initial residual = 0.017648735, Final residual = 1.6329965e-05, No Iterations 8
GAMG:  Solving for p, Initial residual = 0.0032889088, Final residual = 1.7138988e-06, No Iterations 8
time step continuity errors : sum local = 1.0598686e-07, global = -3.278878e-08, cumulative = -8.2952345e-09
ExecutionTime = 0.25 s  ClockTime = 0 s

forceCoeffs forceCoeffs_object write:
    Cm    = 0.032522217
    Cd    = -9.0172856
    Cl    = -1.2379768
    Cl(f) = -0.58646616
    Cl(r) = -0.65151059

fieldMinMax minmaxdomain write:
    min(p) = -3.7530805 at location (-0.57461774 -0.86000427 1.3605077e-17)
    max(p) = 2.8685096 at location (1.0270928 0.1215826 0)
    min(U) = (-0.19233307 0.00033807274 -8.9906812e-18) at location (0.7020078 0.75945223 0)
    max(U) = (1.1810412 0.71406283 2.030965e-18) at location (-0.57577365 1.0281934 2.16922e-17)

Time = 5

DILUPBiCGStab:  Solving for Ux, Initial residual = 0.2392739, Final residual = 4.8563811e-09, No Iterations 5
DILUPBiCGStab:  Solving for Uy, Initial residual = 0.22892465, Final residual = 2.968707e-09, No Iterations 5
GAMG:  Solving for p, Initial residual = 0.25000197, Final residual = 0.00016175307, No Iterations 11
GAMG:  Solving for p, Initial residual = 0.04426732, Final residual = 2.3731762e-05, No Iterations 9
GAMG:  Solving for p, Initial residual = 0.0090874508, Final residual = 3.7984988e-06, No Iterations 8
time step continuity errors : sum local = 4.8815449e-08, global = -6.2778359e-09, cumulative = -1.457307e-08
ExecutionTime = 0.29 s  ClockTime = 0 s

forceCoeffs forceCoeffs_object write:
    Cm    = 0.027773096
    Cd    = -5.7020493
    Cl    = -0.75383595
    Cl(f) = -0.34914488
    Cl(r) = -0.40469107

fieldMinMax minmaxdomain write:
    min(p) = -2.2628916 at location (-0.64029257 -0.81223633 -1.3621027e-17)
    max(p) = 1.4777577 at location (1.0270928 0.1215826 0)
    min(U) = (-0.3150933 0.16561287 -2.6446569e-18) at location (0.7020078 0.75945223 0)
    max(U) = (1.002374 0.49519353 1.9403743e-18) at location (-0.79943982 0.86488106 -2.1781795e-17)

Time = 6

DILUPBiCGStab:  Solving for Ux, Initial residual = 0.20416307, Final residual = 3.896827e-09, No Iterations 5
DILUPBiCGStab:  Solving for Uy, Initial residual = 0.14438502, Final residual = 2.4073651e-09, No Iterations 5
GAMG:  Solving for p, Initial residual = 0.35384159, Final residual = 0.00017960871, No Iterations 13
GAMG:  Solving for p, Initial residual = 0.022389664, Final residual = 1.1819097e-05, No Iterations 9
GAMG:  Solving for p, Initial residual = 0.0043017802, Final residual = 3.711029e-06, No Iterations 7
time step continuity errors : sum local = 1.7697313e-07, global = 2.0590128e-08, cumulative = 6.0170578e-09
ExecutionTime = 0.34 s  ClockTime = 0 s

forceCoeffs forceCoeffs_object write:
    Cm    = 0.026962938
    Cd    = 1.9917818
    Cl    = -0.22530734
    Cl(f) = -0.08569073
    Cl(r) = -0.13961661

fieldMinMax minmaxdomain write:
    min(p) = -0.72673546 at location (1.2452855 0.14746195 1.0249821e-17)
    max(p) = 0.94963085 at location (-1.0270928 0.1215826 0)
    min(U) = (-0.14754511 0.044410663 -1.0728246e-18) at location (0.57461774 0.86000427 1.3208139e-17)
    max(U) = (0.26160973 0.15238186 2.7426649e-18) at location (1.1056584 0.40791306 1.0450822e-17)

Time = 7

DILUPBiCGStab:  Solving for Ux, Initial residual = 0.096847984, Final residual = 9.2266157e-09, No Iterations 5
DILUPBiCGStab:  Solving for Uy, Initial residual = 0.09626901, Final residual = 4.4515648e-09, No Iterations 5
GAMG:  Solving for p, Initial residual = 0.49901308, Final residual = 0.00037658172, No Iterations 11
GAMG:  Solving for p, Initial residual = 0.018226361, Final residual = 1.2370061e-05, No Iterations 8
GAMG:  Solving for p, Initial residual = 0.0035825736, Final residual = 2.2057228e-06, No Iterations 8
time step continuity errors : sum local = 6.8879162e-08, global = -1.0556265e-08, cumulative = -4.5392074e-09
ExecutionTime = 0.38 s  ClockTime = 0 s

forceCoeffs forceCoeffs_object write:
    Cm    = 0.027261403
    Cd    = 6.088073
    Cl    = -0.13496924
    Cl(f) = -0.040223218
    Cl(r) = -0.094746024

fieldMinMax minmaxdomain write:
    min(p) = -1.5755841 at location (1.0270928 0.1215826 0)
    max(p) = 2.2097925 at location (-1.0270928 0.1215826 0)
    min(U) = (0.085837489 -0.058643967 2.8199305e-18) at location (0.7020078 0.75945223 0)
    max(U) = (0.377703 0.21525771 6.0975195e-18) at location (1.4887187 -0.17633502 0)

Time = 8

DILUPBiCGStab:  Solving for Ux, Initial residual = 0.1438836, Final residual = 5.0635338e-09, No Iterations 5
DILUPBiCGStab:  Solving for Uy, Initial residual = 0.16780665, Final residual = 2.4442225e-09, No Iterations 5
GAMG:  Solving for p, Initial residual = 0.26896125, Final residual = 0.00026456352, No Iterations 11
GAMG:  Solving for p, Initial residual = 0.025251006, Final residual = 1.1633631e-05, No Iterations 9
GAMG:  Solving for p, Initial residual = 0.0053528925, Final residual = 2.182338e-06, No Iterations 8
time step continuity errors : sum local = 3.5408179e-08, global = 4.9542538e-09, cumulative = 4.150464e-10
ExecutionTime = 0.43 s  ClockTime = 0 s

forceCoeffs forceCoeffs_object write:
    Cm    = 0.024620561
    Cd    = 4.4579534
    Cl    = -0.41393004
    Cl(f) = -0.18234446
    Cl(r) = -0.23158558

fieldMinMax minmaxdomain write:
    min(p) = -1.189368 at location (0.75945223 -0.7020078 4.0122328e-17)
    max(p) = 1.5181467 at location (-1.033408 0.040619346 0)
    min(U) = (-0.058306945 -0.12889922 -2.3629704e-18) at location (1.2301888 0.2447727 -9.4776735e-18)
    max(U) = (1.3967229 0.094505138 1.2937431e-18) at location (0.14746195 1.2452855 1.9739813e-17)

Time = 9

DILUPBiCGStab:  Solving for Ux, Initial residual = 0.059251779, Final residual = 8.1552352e-09, No Iterations 4
DILUPBiCGStab:  Solving for Uy, Initial residual = 0.099427181, Final residual = 8.3792692e-09, No Iterations 4
GAMG:  Solving for p, Initial residual = 0.45687769, Final residual = 0.00025685052, No Iterations 13
GAMG:  Solving for p, Initial residual = 0.018718934, Final residual = 1.025372e-05, No Iterations 9
GAMG:  Solving for p, Initial residual = 0.0036934855, Final residual = 2.7443846e-06, No Iterations 7
time step continuity errors : sum local = 8.6194525e-08, global = -7.3654641e-09, cumulative = -6.9504177e-09
ExecutionTime = 0.47 s  ClockTime = 0 s

forceCoeffs forceCoeffs_object write:
    Cm    = 0.020985289
    Cd    = 0.52373489
    Cl    = -0.69408651
    Cl(f) = -0.32605797
    Cl(r) = -0.36802854

fieldMinMax minmaxdomain write:
    min(p) = -1.9141924 at location (0.040619346 -1.033408 0)
    max(p) = 0.37908297 at location (1.7603105 0.2085479 0)
    min(U) = (-0.17324787 -0.096547204 -4.215581e-18) at location (1.1056584 0.40791306 1.0450822e-17)
    max(U) = (1.4301057 0.080015541 2.0400195e-18) at location (0.14746195 1.2452855 1.9739813e-17)

Time = 10

DILUPBiCGStab:  Solving for Ux, Initial residual = 0.054279612, Final residual = 4.0731734e-09, No Iterations 4
DILUPBiCGStab:  Solving for Uy, Initial residual = 0.063507926, Final residual = 9.705413e-09, No Iterations 4
GAMG:  Solving for p, Initial residual = 0.32827122, Final residual = 0.00025241092, No Iterations 10
GAMG:  Solving for p, Initial residual = 0.018086798, Final residual = 1.2082187e-05, No Iterations 8
GAMG:  Solving for p, Initial residual = 0.0038502417, Final residual = 2.2550822e-06, No Iterations 8
time step continuity errors : sum local = 3.9117194e-08, global = -1.3412127e-08, cumulative = -2.0362545e-08
ExecutionTime = 0.51 s  ClockTime = 0 s

forceCoeffs forceCoeffs_object write:
    Cm    = 0.017586554
    Cd    = -1.6927675
    Cl    = -0.71027547
    Cl(f) = -0.33755118
    Cl(r) = -0.37272429

fieldMinMax minmaxdomain write:
    min(p) = -2.0091872 at location (-0.20179877 -1.0144308 0)
    max(p) = 0.75376825 at location (1.0270928 0.1215826 0)
    min(U) = (-0.14547206 0.11452131 -3.3733848e-18) at location (0.7020078 0.75945223 0)
    max(U) = (1.1786475 0.57680668 1.0737064e-18) at location (-0.4933805 1.0702566 0)

Time = 11

DILUPBiCGStab:  Solving for Ux, Initial residual = 0.082895856, Final residual = 7.8940037e-09, No Iterations 4
DILUPBiCGStab:  Solving for Uy, Initial residual = 0.081480129, Final residual = 7.9849859e-09, No Iterations 4
GAMG:  Solving for p, Initial residual = 0.29197423, Final residual = 0.00023353156, No Iterations 11
GAMG:  Solving for p, Initial residual = 0.024534367, Final residual = 2.2032954e-05, No Iterations 8
GAMG:  Solving for p, Initial residual = 0.005408086, Final residual = 2.143994e-06, No Iterations 8
time step continuity errors : sum local = 2.4865881e-08, global = 8.0332376e-09, cumulative = -1.2329307e-08
ExecutionTime = 0.55 s  ClockTime = 0 s

forceCoeffs forceCoeffs_object write:
    Cm    = 0.014668107
    Cd    = -1.0112436
    Cl    = -0.52292056
    Cl(f) = -0.24679217
    Cl(r) = -0.27612839

fieldMinMax minmaxdomain write:
    min(p) = -1.2395866 at location (-0.35801029 -0.97041867 2.6395898e-17)
    max(p) = 0.41726069 at location (1.033408 0.040619346 -2.5720097e-17)
    min(U) = (-0.22080658 0.17953881 -1.4009406e-18) at location (0.7020078 0.75945223 0)
    max(U) = (1.3396434 0.22013811 1.2085784e-18) at location (-0.27614962 1.387722 0)

Time = 12

DILUPBiCGStab:  Solving for Ux, Initial residual = 0.050409762, Final residual = 6.9035069e-09, No Iterations 4
DILUPBiCGStab:  Solving for Uy, Initial residual = 0.051180281, Final residual = 9.0339794e-10, No Iterations 5
GAMG:  Solving for p, Initial residual = 0.46039727, Final residual = 0.0004388954, No Iterations 12
GAMG:  Solving for p, Initial residual = 0.01971392, Final residual = 1.0209828e-05, No Iterations 9
GAMG:  Solving for p, Initial residual = 0.003999037, Final residual = 3.2364531e-06, No Iterations 7
time step continuity errors : sum local = 5.5291406e-08, global = -9.4623835e-09, cumulative = -2.179169e-08
ExecutionTime = 0.6 s  ClockTime = 0 s

forceCoeffs forceCoeffs_object write:
    Cm    = 0.011960144
    Cd    = 0.99126143
    Cl    = -0.35618192
    Cl(f) = -0.16613081
    Cl(r) = -0.1900511

fieldMinMax minmaxdomain write:
    min(p) = -0.43325395 at location (-0.28077103 -0.99550033 0)
    max(p) = 0.67960054 at location (-1.0270928 0.1215826 0)
    min(U) = (-0.17157492 -0.14849945 -1.5341102e-19) at location (0.7020078 -0.75945223 0)
    max(U) = (-0.039121243 0.20990084 1.1932343e-18) at location (1.1056584 0.40791306 1.0450822e-17)

Time = 13

DILUPBiCGStab:  Solving for Ux, Initial residual = 0.038372151, Final residual = 7.3785423e-10, No Iterations 5
DILUPBiCGStab:  Solving for Uy, Initial residual = 0.064646779, Final residual = 9.7365085e-09, No Iterations 4
GAMG:  Solving for p, Initial residual = 0.40010868, Final residual = 0.00033011715, No Iterations 8
GAMG:  Solving for p, Initial residual = 0.028358417, Final residual = 2.5016128e-05, No Iterations 8
GAMG:  Solving for p, Initial residual = 0.0067442364, Final residual = 5.2136699e-06, No Iterations 8
time step continuity errors : sum local = 3.8053291e-08, global = -8.1606112e-09, cumulative = -2.9952302e-08
ExecutionTime = 0.63 s  ClockTime = 0 s

forceCoeffs forceCoeffs_object write:
    Cm    = 0.010743538
    Cd    = 2.2697028
    Cl    = -0.34049399
    Cl(f) = -0.15950346
    Cl(r) = -0.18099053

fieldMinMax minmaxdomain write:
    min(p) = -0.58498453 at location (0.99550033 0.28077103 1.3197495e-17)
    max(p) = 0.96917078 at location (-1.0270928 0.1215826 0)
    min(U) = (-0.11725459 -0.089266159 -3.0206519e-18) at location (1.4887187 0.17633502 0)
    max(U) = (-0.025350605 0.027155523 1.2787823e-18) at location (0.7020078 0.75945223 0)

Time = 14

DILUPBiCGStab:  Solving for Ux, Initial residual = 0.039008993, Final residual = 6.6716006e-09, No Iterations 4
DILUPBiCGStab:  Solving for Uy, Initial residual = 0.072488383, Final residual = 7.3650941e-09, No Iterations 4
GAMG:  Solving for p, Initial residual = 0.38938336, Final residual = 0.00027947855, No Iterations 11
GAMG:  Solving for p, Initial residual = 0.019263993, Final residual = 1.4036712e-05, No Iterations 8
GAMG:  Solving for p, Initial residual = 0.0045442653, Final residual = 2.1488714e-06, No Iterations 8
time step continuity errors : sum local = 2.2065524e-08, global = -2.4184291e-09, cumulative = -3.2370731e-08
ExecutionTime = 0.67 s  ClockTime = 0 s

forceCoeffs forceCoeffs_object write:
    Cm    = 0.0099518889
    Cd    = 2.0866848
    Cl    = -0.41722145
    Cl(f) = -0.19865884
    Cl(r) = -0.21856261

fieldMinMax minmaxdomain write:
    min(p) = -0.81746384 at location (0.040619346 -1.033408 0)
    max(p) = 0.78334123 at location (-1.0270928 0.1215826 0)
    min(U) = (-0.26598173 -0.071262474 -7.0350897e-19) at location (1.4971418 0.058899807 2.2128747e-17)
    max(U) = (1.3333156 0.31260963 9.6243866e-19) at location (-0.14746195 1.2452855 0)

Time = 15

DILUPBiCGStab:  Solving for Ux, Initial residual = 0.027369656, Final residual = 3.5952002e-09, No Iterations 4
DILUPBiCGStab:  Solving for Uy, Initial residual = 0.045035593, Final residual = 4.1275775e-09, No Iterations 4
GAMG:  Solving for p, Initial residual = 0.56596476, Final residual = 0.00048061057, No Iterations 12
GAMG:  Solving for p, Initial residual = 0.016199474, Final residual = 1.5545735e-05, No Iterations 8
GAMG:  Solving for p, Initial residual = 0.0033864556, Final residual = 2.4113803e-06, No Iterations 7
time step continuity errors : sum local = 2.8526201e-08, global = -2.0350402e-09, cumulative = -3.4405771e-08
ExecutionTime = 0.71 s  ClockTime = 0 s

forceCoeffs forceCoeffs_object write:
    Cm    = 0.0092147216
    Cd    = 1.1050692
    Cl    = -0.46471848
    Cl(f) = -0.22314452
    Cl(r) = -0.24157396

fieldMinMax minmaxdomain write:
    min(p) = -1.1925534 at location (-0.040619346 -1.033408 -1.5196092e-17)
    max(p) = 0.46021882 at location (-1.0270928 0.1215826 0)
    min(U) = (-0.12014622 -0.22003379 -1.6646437e-18) at location (1.0281934 -0.57577365 -2.1670673e-17)
    max(U) = (1.34953 0.31593692 1.3119282e-18) at location (-0.14746195 1.2452855 0)

Time = 16

DILUPBiCGStab:  Solving for Ux, Initial residual = 0.03333535, Final residual = 2.9432632e-09, No Iterations 4
DILUPBiCGStab:  Solving for Uy, Initial residual = 0.038615136, Final residual = 4.2689981e-09, No Iterations 4
GAMG:  Solving for p, Initial residual = 0.26413921, Final residual = 0.00020255853, No Iterations 8
GAMG:  Solving for p, Initial residual = 0.023773973, Final residual = 2.2225388e-05, No Iterations 8
GAMG:  Solving for p, Initial residual = 0.0058154028, Final residual = 3.5887003e-06, No Iterations 8
time step continuity errors : sum local = 1.8474194e-08, global = -6.3613345e-09, cumulative = -4.0767105e-08
ExecutionTime = 0.74 s  ClockTime = 0 s

forceCoeffs forceCoeffs_object write:
    Cm    = 0.0081765209
    Cd    = 0.39056027
    Cl    = -0.4290834
    Cl(f) = -0.20636518
    Cl(r) = -0.22271822

fieldMinMax minmaxdomain write:
    min(p) = -1.1850581 at location (-0.20179877 -1.0144308 0)
    max(p) = 0.32503384 at location (-1.0971865 0.12989626 0)
    min(U) = (-0.079848722 0.077951773 -1.4150036e-18) at location (0.7020078 0.75945223 0)
    max(U) = (1.3645031 0.28721056 1.197041e-18) at location (-0.14746195 1.2452855 0)

Time = 17

DILUPBiCGStab:  Solving for Ux, Initial residual = 0.033497004, Final residual = 6.9585429e-09, No Iterations 4
DILUPBiCGStab:  Solving for Uy, Initial residual = 0.040238632, Final residual = 3.594031e-09, No Iterations 4
GAMG:  Solving for p, Initial residual = 0.29375682, Final residual = 0.00025489641, No Iterations 10
GAMG:  Solving for p, Initial residual = 0.024414354, Final residual = 1.8218621e-05, No Iterations 8
GAMG:  Solving for p, Initial residual = 0.0056276532, Final residual = 2.6530693e-06, No Iterations 8
time step continuity errors : sum local = 1.4183672e-08, global = -2.542308e-09, cumulative = -4.3309414e-08
ExecutionTime = 0.79 s  ClockTime = 0 s

forceCoeffs forceCoeffs_object write:
    Cm    = 0.0068510031
    Cd    = 0.44198867
    Cl    = -0.34897349
    Cl(f) = -0.16763574
    Cl(r) = -0.18133775

fieldMinMax minmaxdomain write:
    min(p) = -0.90432196 at location (-0.28077103 -0.99550033 0)
    max(p) = 0.42171123 at location (-1.0270928 0.1215826 0)
    min(U) = (-0.24618315 -0.042645258 -7.23187e-19) at location (1.252597 0.049259811 1.9385752e-17)
    max(U) = (1.1011488 0.56753019 6.1340575e-19) at location (-0.57577365 1.0281934 2.16922e-17)

Time = 18

DILUPBiCGStab:  Solving for Ux, Initial residual = 0.025461587, Final residual = 4.3672939e-09, No Iterations 4
DILUPBiCGStab:  Solving for Uy, Initial residual = 0.04176769, Final residual = 3.6496464e-09, No Iterations 4
GAMG:  Solving for p, Initial residual = 0.40779297, Final residual = 0.00033103408, No Iterations 11
GAMG:  Solving for p, Initial residual = 0.024750894, Final residual = 1.1943321e-05, No Iterations 8
GAMG:  Solving for p, Initial residual = 0.0052829798, Final residual = 4.2870741e-06, No Iterations 7
time step continuity errors : sum local = 2.1504222e-08, global = -3.9233607e-09, cumulative = -4.7232774e-08
ExecutionTime = 0.82 s  ClockTime = 0 s

forceCoeffs forceCoeffs_object write:
    Cm    = 0.0055991332
    Cd    = 0.97998902
    Cl    = -0.28741467
    Cl(f) = -0.1381082
    Cl(r) = -0.14930647

fieldMinMax minmaxdomain write:
    min(p) = -0.64042468 at location (-0.28077103 -0.99550033 0)
    max(p) = 0.58441328 at location (-1.0270928 0.1215826 0)
    min(U) = (-0.32014538 -0.075835884 -7.2116187e-19) at location (1.6664575 -0.19741622 0)
    max(U) = (1.094458 0.56299251 4.9354475e-19) at location (-0.57577365 1.0281934 2.16922e-17)

Time = 19

DILUPBiCGStab:  Solving for Ux, Initial residual = 0.020572527, Final residual = 3.9067046e-09, No Iterations 4
DILUPBiCGStab:  Solving for Uy, Initial residual = 0.050307171, Final residual = 4.6506926e-09, No Iterations 4
GAMG:  Solving for p, Initial residual = 0.4857309, Final residual = 0.00024509762, No Iterations 8
GAMG:  Solving for p, Initial residual = 0.03872212, Final residual = 3.6716354e-05, No Iterations 8
GAMG:  Solving for p, Initial residual = 0.0086575614, Final residual = 7.7499092e-06, No Iterations 8
time step continuity errors : sum local = 2.3260406e-08, global = -5.6421436e-09, cumulative = -5.2874918e-08
ExecutionTime = 0.86 s  ClockTime = 1 s

forceCoeffs forceCoeffs_object write:
    Cm    = 0.0048544961
    Cd    = 1.4289784
    Cl    = -0.26584627
    Cl(f) = -0.12806864
    Cl(r) = -0.13777763

fieldMinMax minmaxdomain write:
    min(p) = -0.58470771 at location (-0.28077103 -0.99550033 0)
    max(p) = 0.65557192 at location (-1.0270928 0.1215826 0)
    min(U) = (-0.36964801 -0.1062574 -4.8740076e-19) at location (1.7699736 0.069654884 0)
    max(U) = (1.0757544 0.57070607 4.8517736e-19) at location (-0.57577365 1.0281934 2.16922e-17)

Time = 20

DILUPBiCGStab:  Solving for Ux, Initial residual = 0.020474533, Final residual = 3.0280674e-09, No Iterations 4
DILUPBiCGStab:  Solving for Uy, Initial residual = 0.047534758, Final residual = 5.1081613e-09, No Iterations 4
GAMG:  Solving for p, Initial residual = 0.48985859, Final residual = 0.00034161005, No Iterations 10
GAMG:  Solving for p, Initial residual = 0.01799503, Final residual = 1.0437478e-05, No Iterations 8
GAMG:  Solving for p, Initial residual = 0.0043859559, Final residual = 2.033644e-06, No Iterations 8
time step continuity errors : sum local = 1.1691855e-08, global = 3.8972595e-09, cumulative = -4.8977658e-08
ExecutionTime = 0.9 s  ClockTime = 1 s

    Reading/initialising field UMean
    Reading/initialising field pMean
    Reading/initialising field UPrime2Mean
    Reading/initialising field pPrime2Mean
fieldAverage fieldAverage write:
    Calculating averages

forceCoeffs forceCoeffs_object write:
    Cm    = 0.0045572209
    Cd    = 1.4724559
    Cl    = -0.25808046
    Cl(f) = -0.12448301
    Cl(r) = -0.13359745

fieldMinMax minmaxdomain write:
    min(p) = -0.69689416 at location (-0.20179877 -1.0144308 0)
    max(p) = 0.61344736 at location (-1.0270928 0.1215826 0)
    min(U) = (-0.41230627 -0.10791604 -4.4510601e-19) at location (1.7699736 0.069654884 0)
    max(U) = (1.3410668 0.039522285 4.3807268e-19) at location (0.43121241 1.5285504 -1.4453535e-17)

Time = 21

DILUPBiCGStab:  Solving for Ux, Initial residual = 0.022273292, Final residual = 1.5534955e-10, No Iterations 5
DILUPBiCGStab:  Solving for Uy, Initial residual = 0.036756188, Final residual = 2.0412115e-09, No Iterations 4
GAMG:  Solving for p, Initial residual = 0.27645026, Final residual = 0.00027187391, No Iterations 10
GAMG:  Solving for p, Initial residual = 0.015809952, Final residual = 9.6341496e-06, No Iterations 8
GAMG:  Solving for p, Initial residual = 0.0038701068, Final residual = 3.2360716e-06, No Iterations 7
time step continuity errors : sum local = 1.6739663e-08, global = -2.5040346e-09, cumulative = -5.1481693e-08
ExecutionTime = 0.95 s  ClockTime = 1 s

fieldAverage fieldAverage write:
    Calculating averages

forceCoeffs forceCoeffs_object write:
    Cm    = 0.004282788
    Cd    = 1.2182721
    Cl    = -0.23285808
    Cl(f) = -0.11214625
    Cl(r) = -0.12071183

fieldMinMax minmaxdomain write:
    min(p) = -0.79643721 at location (-0.20179877 -1.0144308 0)
    max(p) = 0.53663162 at location (-1.0270928 0.1215826 0)
    min(U) = (-0.15844079 -0.13584992 -2.1106405e-18) at location (2.4139601 0.095040936 0)
    max(U) = (1.3432049 0.073987994 5.6316576e-19) at location (0.3099018 1.5571806 0)

Time = 22

DILUPBiCGStab:  Solving for Ux, Initial residual = 0.023089891, Final residual = 1.6147774e-09, No Iterations 4
DILUPBiCGStab:  Solving for Uy, Initial residual = 0.032792215, Final residual = 3.1996519e-09, No Iterations 4
GAMG:  Solving for p, Initial residual = 0.21264975, Final residual = 0.000150371, No Iterations 8
GAMG:  Solving for p, Initial residual = 0.019049005, Final residual = 1.4883243e-05, No Iterations 8
GAMG:  Solving for p, Initial residual = 0.005126315, Final residual = 2.5706653e-06, No Iterations 8
time step continuity errors : sum local = 7.4775753e-09, global = 1.0742857e-09, cumulative = -5.0407407e-08
ExecutionTime = 0.98 s  ClockTime = 1 s

fieldAverage fieldAverage write:
    Calculating averages

forceCoeffs forceCoeffs_object write:
    Cm    = 0.0037777286
    Cd    = 0.97799805
    Cl    = -0.18582278
    Cl(f) = -0.089133663
    Cl(r) = -0.096689121

fieldMinMax minmaxdomain write:
    min(p) = -0.78121952 at location (-0.28077103 -0.99550033 0)
    max(p) = 0.50099887 at location (-1.0270928 0.1215826 0)
    min(U) = (-0.46264646 -0.13787873 -7.9496683e-19) at location (1.4887187 -0.17633502 0)
    max(U) = (1.2849675 0.30541115 1.3508121e-18) at location (-0.27614962 1.387722 0)

Time = 23

DILUPBiCGStab:  Solving for Ux, Initial residual = 0.021194231, Final residual = 4.3836558e-10, No Iterations 5
DILUPBiCGStab:  Solving for Uy, Initial residual = 0.035555073, Final residual = 3.0338884e-09, No Iterations 4
GAMG:  Solving for p, Initial residual = 0.23018346, Final residual = 0.00013340085, No Iterations 9
GAMG:  Solving for p, Initial residual = 0.028888525, Final residual = 1.8485974e-05, No Iterations 8
GAMG:  Solving for p, Initial residual = 0.0060509934, Final residual = 3.3090498e-06, No Iterations 8
time step continuity errors : sum local = 7.0319579e-09, global = 1.2241027e-09, cumulative = -4.9183305e-08
ExecutionTime = 1.02 s  ClockTime = 1 s

fieldAverage fieldAverage write:
    Calculating averages

forceCoeffs forceCoeffs_object write:
    Cm    = 0.0030799851
    Cd    = 0.95081467
    Cl    = -0.13349596
    Cl(f) = -0.063667996
    Cl(r) = -0.069827966

fieldMinMax minmaxdomain write:
    min(p) = -0.6898117 at location (-0.28077103 -0.99550033 0)
    max(p) = 0.51920179 at location (-1.0270928 0.1215826 0)
    min(U) = (-0.47027125 -0.13247772 -9.3375423e-19) at location (1.4887187 -0.17633502 0)
    max(U) = (1.2845071 0.30054833 1.1770531e-18) at location (-0.27614962 1.387722 0)

Time = 24

DILUPBiCGStab:  Solving for Ux, Initial residual = 0.018575088, Final residual = 3.2993532e-10, No Iterations 5
DILUPBiCGStab:  Solving for Uy, Initial residual = 0.040099165, Final residual = 3.8283018e-09, No Iterations 4
GAMG:  Solving for p, Initial residual = 0.24756437, Final residual = 0.00018205584, No Iterations 9
GAMG:  Solving for p, Initial residual = 0.027021778, Final residual = 1.6180878e-05, No Iterations 8
GAMG:  Solving for p, Initial residual = 0.0059163015, Final residual = 4.3779707e-06, No Iterations 7
time step continuity errors : sum local = 9.5341285e-09, global = -1.9744707e-09, cumulative = -5.1157775e-08
ExecutionTime = 1.05 s  ClockTime = 1 s

fieldAverage fieldAverage write:
    Calculating averages

forceCoeffs forceCoeffs_object write:
    Cm    = 0.002390025
    Cd    = 1.096597
    Cl    = -0.089626136
    Cl(f) = -0.042423043
    Cl(r) = -0.047203093

fieldMinMax minmaxdomain write:
    min(p) = -0.60220051 at location (-0.28077103 -0.99550033 0)
    max(p) = 0.5554168 at location (-1.0270928 0.1215826 0)
    min(U) = (-0.48429847 -0.086185113 -1.598293e-19) at location (1.7699736 0.069654884 0)
    max(U) = (1.3549825 0.17362362 2.6927068e-19) at location (0.055568545 1.4126352 0)

Time = 25

DILUPBiCGStab:  Solving for Ux, Initial residual = 0.017358442, Final residual = 5.0962107e-09, No Iterations 4
DILUPBiCGStab:  Solving for Uy, Initial residual = 0.042322853, Final residual = 9.0742773e-09, No Iterations 4
GAMG:  Solving for p, Initial residual = 0.25322262, Final residual = 0.00021996076, No Iterations 7
GAMG:  Solving for p, Initial residual = 0.018951406, Final residual = 1.2771161e-05, No Iterations 8
GAMG:  Solving for p, Initial residual = 0.0044905885, Final residual = 4.4560347e-06, No Iterations 7
time step continuity errors : sum local = 1.4817623e-08, global = -3.0011502e-09, cumulative = -5.4158926e-08
ExecutionTime = 1.09 s  ClockTime = 1 s

fieldAverage fieldAverage write:
    Calculating averages

forceCoeffs forceCoeffs_object write:
    Cm    = 0.0018969612
    Cd    = 1.245406
    Cl    = -0.052954785
    Cl(f) = -0.024580431
    Cl(r) = -0.028374354

fieldMinMax minmaxdomain write:
    min(p) = -0.57210172 at location (-0.040619346 1.033408 1.5196092e-17)
    max(p) = 0.5737169 at location (-1.0270928 0.1215826 0)
    min(U) = (-0.5112119 -0.083300769 -3.8745732e-19) at location (1.8357211 -0.36538055 0)
    max(U) = (1.3432986 0.23714148 3.3652475e-19) at location (-0.052356638 1.3311564 0)

Time = 26

DILUPBiCGStab:  Solving for Ux, Initial residual = 0.017389423, Final residual = 2.7969389e-10, No Iterations 5
DILUPBiCGStab:  Solving for Uy, Initial residual = 0.039272782, Final residual = 5.9837904e-09, No Iterations 4
GAMG:  Solving for p, Initial residual = 0.21992673, Final residual = 8.9379682e-05, No Iterations 9
GAMG:  Solving for p, Initial residual = 0.015202008, Final residual = 1.472939e-05, No Iterations 7
GAMG:  Solving for p, Initial residual = 0.00368008, Final residual = 1.9780056e-06, No Iterations 8
time step continuity errors : sum local = 7.6253408e-09, global = 2.0206777e-09, cumulative = -5.2138248e-08
ExecutionTime = 1.14 s  ClockTime = 1 s

fieldAverage fieldAverage write:
    Calculating averages

forceCoeffs forceCoeffs_object write:
    Cm    = 0.0016084232
    Cd    = 1.2781051
    Cl    = -0.014146746
    Cl(f) = -0.0054649499
    Cl(r) = -0.0086817964

fieldMinMax minmaxdomain write:
    min(p) = -0.61246308 at location (-0.040619346 1.033408 1.5196092e-17)
    max(p) = 0.56678786 at location (-1.0270928 0.1215826 0)
    min(U) = (-0.55146694 -0.097023566 -3.6695023e-19) at location (1.8357211 -0.36538055 0)
    max(U) = (1.3382711 0.24109599 3.6853551e-19) at location (-0.052356638 1.3311564 0)

Time = 27

DILUPBiCGStab:  Solving for Ux, Initial residual = 0.017567498, Final residual = 1.6204654e-09, No Iterations 4
DILUPBiCGStab:  Solving for Uy, Initial residual = 0.034669176, Final residual = 3.6996565e-09, No Iterations 4
GAMG:  Solving for p, Initial residual = 0.17931929, Final residual = 0.00017571796, No Iterations 8
GAMG:  Solving for p, Initial residual = 0.013844007, Final residual = 7.7102488e-06, No Iterations 9
GAMG:  Solving for p, Initial residual = 0.0038306338, Final residual = 2.0204929e-06, No Iterations 8
time step continuity errors : sum local = 6.9149286e-09, global = -1.4546184e-09, cumulative = -5.3592866e-08
ExecutionTime = 1.17 s  ClockTime = 1 s

fieldAverage fieldAverage write:
    Calculating averages

forceCoeffs forceCoeffs_object write:
    Cm    = 0.0013769367
    Cd    = 1.2071467
    Cl    = 0.03179546
    Cl(f) = 0.017274667
    Cl(r) = 0.014520793

fieldMinMax minmaxdomain write:
    min(p) = -0.64723519 at location (-0.040619346 1.033408 1.5196092e-17)
    max(p) = 0.54992887 at location (-1.0270928 0.1215826 0)
    min(U) = (-0.30316999 -0.19595777 -2.4643658e-18) at location (2.4139601 0.095040936 0)
    max(U) = (1.3368881 0.24098513 3.8257045e-19) at location (-0.052356638 1.3311564 0)

Time = 28

DILUPBiCGStab:  Solving for Ux, Initial residual = 0.017055684, Final residual = 9.7390311e-09, No Iterations 4
DILUPBiCGStab:  Solving for Uy, Initial residual = 0.033540207, Final residual = 2.0109234e-09, No Iterations 4
GAMG:  Solving for p, Initial residual = 0.16572424, Final residual = 7.3273867e-05, No Iterations 9
GAMG:  Solving for p, Initial residual = 0.013315473, Final residual = 8.6664176e-06, No Iterations 9
GAMG:  Solving for p, Initial residual = 0.0040916014, Final residual = 2.1262242e-06, No Iterations 8
time step continuity errors : sum local = 5.9014518e-09, global = -1.7889229e-10, cumulative = -5.3771759e-08
ExecutionTime = 1.21 s  ClockTime = 1 s

fieldAverage fieldAverage write:
    Calculating averages

forceCoeffs forceCoeffs_object write:
    Cm    = 0.0010979963
    Cd    = 1.1244556
    Cl    = 0.081485853
    Cl(f) = 0.041840923
    Cl(r) = 0.03964493

fieldMinMax minmaxdomain write:
    min(p) = -0.65242537 at location (-0.040619346 1.033408 1.5196092e-17)
    max(p) = 0.54104617 at location (-1.033408 0.040619346 0)
    min(U) = (-0.50780902 -0.068735695 -1.1963899e-18) at location (1.4887187 -0.17633502 0)
    max(U) = (1.3362221 0.23968698 3.6955039e-19) at location (-0.052356638 1.3311564 0)

Time = 29

DILUPBiCGStab:  Solving for Ux, Initial residual = 0.015953132, Final residual = 2.288344e-09, No Iterations 4
DILUPBiCGStab:  Solving for Uy, Initial residual = 0.03454688, Final residual = 1.7604701e-09, No Iterations 4
GAMG:  Solving for p, Initial residual = 0.16469218, Final residual = 7.4956623e-05, No Iterations 9
GAMG:  Solving for p, Initial residual = 0.013034981, Final residual = 1.2075173e-05, No Iterations 7
GAMG:  Solving for p, Initial residual = 0.0035478413, Final residual = 2.3903145e-06, No Iterations 8
time step continuity errors : sum local = 6.2390805e-09, global = -1.7796817e-10, cumulative = -5.3949727e-08
ExecutionTime = 1.25 s  ClockTime = 1 s

fieldAverage fieldAverage write:
    Calculating averages

forceCoeffs forceCoeffs_object write:
    Cm    = 0.00077415343
    Cd    = 1.1004231
    Cl    = 0.12842079
    Cl(f) = 0.064984551
    Cl(r) = 0.063436244

fieldMinMax minmaxdomain write:
    min(p) = -0.63791657 at location (-0.1215826 1.0270928 0)
    max(p) = 0.54344313 at location (-1.033408 0.040619346 0)
    min(U) = (-0.34304339 -0.20648308 -2.4576384e-18) at location (2.4139601 0.095040936 0)
    max(U) = (1.3338724 0.24034063 3.4667148e-19) at location (-0.052356638 1.3311564 0)

Time = 30

DILUPBiCGStab:  Solving for Ux, Initial residual = 0.014894252, Final residual = 4.5067868e-10, No Iterations 5
DILUPBiCGStab:  Solving for Uy, Initial residual = 0.035169931, Final residual = 2.0900497e-09, No Iterations 4
GAMG:  Solving for p, Initial residual = 0.16644486, Final residual = 8.3314092e-05, No Iterations 8
GAMG:  Solving for p, Initial residual = 0.012407634, Final residual = 6.9241622e-06, No Iterations 8
GAMG:  Solving for p, Initial residual = 0.0029804828, Final residual = 1.2801292e-06, No Iterations 8
time step continuity errors : sum local = 3.7797047e-09, global = -6.640974e-10, cumulative = -5.4613824e-08
ExecutionTime = 1.29 s  ClockTime = 1 s

fieldAverage fieldAverage write:
    Calculating averages

forceCoeffs forceCoeffs_object write:
    Cm    = 0.00047202474
    Cd    = 1.1332752
    Cl    = 0.17022237
    Cl(f) = 0.085583209
    Cl(r) = 0.084639159

fieldMinMax minmaxdomain write:
    min(p) = -0.62648732 at location (-0.1215826 1.0270928 0)
    max(p) = 0.55100897 at location (-1.033408 0.040619346 0)
    min(U) = (-0.47585217 -0.20442867 -1.5871996e-19) at location (1.5285504 -0.43121241 -2.8145284e-17)
    max(U) = (1.3298103 0.24355956 3.3392333e-19) at location (-0.052356638 1.3311564 0)

Time = 31

DILUPBiCGStab:  Solving for Ux, Initial residual = 0.014254819, Final residual = 3.5553522e-09, No Iterations 4
DILUPBiCGStab:  Solving for Uy, Initial residual = 0.033946827, Final residual = 2.5275654e-09, No Iterations 4
GAMG:  Solving for p, Initial residual = 0.1612475, Final residual = 0.00013937261, No Iterations 7
GAMG:  Solving for p, Initial residual = 0.012534111, Final residual = 5.2467479e-06, No Iterations 8
GAMG:  Solving for p, Initial residual = 0.0030854786, Final residual = 1.2043206e-06, No Iterations 8
time step continuity errors : sum local = 3.9959589e-09, global = 1.1679962e-09, cumulative = -5.3445828e-08
ExecutionTime = 1.33 s  ClockTime = 1 s

fieldAverage fieldAverage write:
    Calculating averages

forceCoeffs forceCoeffs_object write:
    Cm    = 0.00024516944
    Cd    = 1.1746572
    Cl    = 0.20943285
    Cl(f) = 0.10496159
    Cl(r) = 0.10447125

fieldMinMax minmaxdomain write:
    min(p) = -0.64853557 at location (1.9001596 0.53609076 0)
    max(p) = 0.55646909 at location (-1.033408 0.040619346 0)
    min(U) = (-0.43436537 -0.19154224 -1.4895268e-19) at location (2.2966071 0.090414863 1.4623033e-17)
    max(U) = (1.3256611 0.24779224 3.3599629e-19) at location (-0.052356638 1.3311564 0)

Time = 32

DILUPBiCGStab:  Solving for Ux, Initial residual = 0.013881709, Final residual = 4.8957644e-10, No Iterations 5
DILUPBiCGStab:  Solving for Uy, Initial residual = 0.03111205, Final residual = 2.6316147e-09, No Iterations 4
GAMG:  Solving for p, Initial residual = 0.14759217, Final residual = 9.6995283e-05, No Iterations 8
GAMG:  Solving for p, Initial residual = 0.012382103, Final residual = 1.1291225e-05, No Iterations 7
GAMG:  Solving for p, Initial residual = 0.0031574056, Final residual = 1.2611507e-06, No Iterations 8
time step continuity errors : sum local = 4.2408423e-09, global = -9.1454291e-10, cumulative = -5.4360371e-08
ExecutionTime = 1.37 s  ClockTime = 1 s

fieldAverage fieldAverage write:
    Calculating averages

forceCoeffs forceCoeffs_object write:
    Cm    = 0.00010122332
    Cd    = 1.1846694
    Cl    = 0.24891967
    Cl(f) = 0.12456106
    Cl(r) = 0.12435861

fieldMinMax minmaxdomain write:
    min(p) = -0.66064896 at location (1.9001596 0.53609076 0)
    max(p) = 0.55723995 at location (-1.033408 0.040619346 0)
    min(U) = (-0.44679665 -0.18494932 -1.7832257e-19) at location (2.2966071 0.090414863 1.4623033e-17)
    max(U) = (1.3228455 0.25142437 3.4322293e-19) at location (-0.052356638 1.3311564 0)

Time = 33

DILUPBiCGStab:  Solving for Ux, Initial residual = 0.01348859, Final residual = 1.5968489e-09, No Iterations 4
DILUPBiCGStab:  Solving for Uy, Initial residual = 0.028701396, Final residual = 2.6389178e-09, No Iterations 4
GAMG:  Solving for p, Initial residual = 0.13602859, Final residual = 5.2617717e-05, No Iterations 9
GAMG:  Solving for p, Initial residual = 0.012219917, Final residual = 1.1448127e-05, No Iterations 7
GAMG:  Solving for p, Initial residual = 0.0034057476, Final residual = 1.8948945e-06, No Iterations 8
time step continuity errors : sum local = 5.9730822e-09, global = -1.1459972e-09, cumulative = -5.5506368e-08
ExecutionTime = 1.41 s  ClockTime = 1 s

fieldAverage fieldAverage write:
    Calculating averages

forceCoeffs forceCoeffs_object write:
    Cm    = 2.2322562e-05
    Cd    = 1.1618818
    Cl    = 0.28862349
    Cl(f) = 0.14433407
    Cl(r) = 0.14428942

fieldMinMax minmaxdomain write:
    min(p) = -0.66110369 at location (1.9001596 0.53609076 0)
    max(p) = 0.55518102 at location (-1.033408 0.040619346 0)
    min(U) = (-0.45594706 -0.17360242 -2.0554791e-19) at location (2.2966071 0.090414863 1.4623033e-17)
    max(U) = (1.3214813 0.25420795 3.4443052e-19) at location (-0.052356638 1.3311564 0)

Time = 34

DILUPBiCGStab:  Solving for Ux, Initial residual = 0.012937198, Final residual = 7.8506376e-09, No Iterations 4
DILUPBiCGStab:  Solving for Uy, Initial residual = 0.027630465, Final residual = 2.6415472e-09, No Iterations 4
GAMG:  Solving for p, Initial residual = 0.13093768, Final residual = 6.0814184e-05, No Iterations 9
GAMG:  Solving for p, Initial residual = 0.011749478, Final residual = 1.0238763e-05, No Iterations 7
GAMG:  Solving for p, Initial residual = 0.0036095396, Final residual = 2.2033338e-06, No Iterations 8
time step continuity errors : sum local = 6.5968334e-09, global = -1.5287858e-09, cumulative = -5.7035154e-08
ExecutionTime = 1.44 s  ClockTime = 1 s

fieldAverage fieldAverage write:
    Calculating averages

forceCoeffs forceCoeffs_object write:
    Cm    = -8.3505773e-06
    Cd    = 1.131676
    Cl    = 0.32578932
    Cl(f) = 0.16288631
    Cl(r) = 0.16290301

fieldMinMax minmaxdomain write:
    min(p) = -0.66464442 at location (2.039092 0.40588727 3.446534e-17)
    max(p) = 0.55304445 at location (-1.033408 0.040619346 0)
    min(U) = (-0.46145321 -0.15836517 -2.2861269e-19) at location (2.2966071 0.090414863 1.4623033e-17)
    max(U) = (1.3146157 0.11853157 3.4072241e-19) at location (0.3099018 1.5571806 0)

Time = 35

DILUPBiCGStab:  Solving for Ux, Initial residual = 0.012302936, Final residual = 2.8658567e-09, No Iterations 4
DILUPBiCGStab:  Solving for Uy, Initial residual = 0.027000236, Final residual = 2.5579441e-09, No Iterations 4
GAMG:  Solving for p, Initial residual = 0.12950339, Final residual = 6.1003724e-05, No Iterations 8
GAMG:  Solving for p, Initial residual = 0.010998836, Final residual = 4.7680514e-06, No Iterations 8
GAMG:  Solving for p, Initial residual = 0.0033096377, Final residual = 2.1635348e-06, No Iterations 8
time step continuity errors : sum local = 6.6298015e-09, global = -1.6133672e-09, cumulative = -5.8648521e-08
ExecutionTime = 1.48 s  ClockTime = 1 s

fieldAverage fieldAverage write:
    Calculating averages

forceCoeffs forceCoeffs_object write:
    Cm    = 6.9505321e-06
    Cd    = 1.1166362
    Cl    = 0.35809373
    Cl(f) = 0.17905382
    Cl(r) = 0.17903991

fieldMinMax minmaxdomain write:
    min(p) = -0.67424269 at location (2.039092 0.40588727 3.446534e-17)
    max(p) = 0.55213157 at location (-1.033408 0.040619346 0)
    min(U) = (-0.57449382 -0.1423218 -8.129772e-19) at location (1.707579 -0.48173922 0)
    max(U) = (1.3196317 0.26071567 3.2545426e-19) at location (-0.052356638 1.3311564 0)

Time = 36

DILUPBiCGStab:  Solving for Ux, Initial residual = 0.011717586, Final residual = 8.2069141e-09, No Iterations 4
DILUPBiCGStab:  Solving for Uy, Initial residual = 0.025991853, Final residual = 2.632607e-09, No Iterations 4
GAMG:  Solving for p, Initial residual = 0.12783509, Final residual = 5.805508e-05, No Iterations 8
GAMG:  Solving for p, Initial residual = 0.010799749, Final residual = 6.9623142e-06, No Iterations 8
GAMG:  Solving for p, Initial residual = 0.0029180172, Final residual = 1.6550236e-06, No Iterations 8
time step continuity errors : sum local = 5.4198388e-09, global = -1.173247e-09, cumulative = -5.9821768e-08
ExecutionTime = 1.52 s  ClockTime = 1 s

fieldAverage fieldAverage write:
    Calculating averages

forceCoeffs forceCoeffs_object write:
    Cm    = 7.4182755e-05
    Cd    = 1.1190553
    Cl    = 0.38526988
    Cl(f) = 0.19270912
    Cl(r) = 0.19256076

fieldMinMax minmaxdomain write:
    min(p) = -0.68479638 at location (2.039092 0.40588727 3.446534e-17)
    max(p) = 0.55219838 at location (-1.033408 0.040619346 0)
    min(U) = (-0.57630755 -0.12380443 -8.3448314e-19) at location (1.707579 -0.48173922 0)
    max(U) = (1.3180797 0.26539805 3.1666929e-19) at location (-0.052356638 1.3311564 0)

Time = 37

DILUPBiCGStab:  Solving for Ux, Initial residual = 0.011222252, Final residual = 1.6446613e-09, No Iterations 4
DILUPBiCGStab:  Solving for Uy, Initial residual = 0.024487788, Final residual = 2.8317841e-09, No Iterations 4
GAMG:  Solving for p, Initial residual = 0.1211034, Final residual = 4.5044178e-05, No Iterations 8
GAMG:  Solving for p, Initial residual = 0.011155231, Final residual = 7.2176557e-06, No Iterations 8
GAMG:  Solving for p, Initial residual = 0.0028420057, Final residual = 1.2779543e-06, No Iterations 8
time step continuity errors : sum local = 4.3222158e-09, global = -8.8471152e-10, cumulative = -6.070648e-08
ExecutionTime = 1.56 s  ClockTime = 1 s

fieldAverage fieldAverage write:
    Calculating averages

forceCoeffs forceCoeffs_object write:
    Cm    = 0.00019339453
    Cd    = 1.1262859
    Cl    = 0.40839892
    Cl(f) = 0.20439285
    Cl(r) = 0.20400606

fieldMinMax minmaxdomain write:
    min(p) = -0.69523286 at location (2.1464795 0.42727633 0)
    max(p) = 0.55249533 at location (-1.033408 0.040619346 0)
    min(U) = (-0.5762358 -0.1030657 -8.5275986e-19) at location (1.707579 -0.48173922 0)
    max(U) = (1.3163635 0.27056848 3.1230161e-19) at location (-0.052356638 1.3311564 0)

Time = 38

DILUPBiCGStab:  Solving for Ux, Initial residual = 0.010780187, Final residual = 1.2958325e-10, No Iterations 5
DILUPBiCGStab:  Solving for Uy, Initial residual = 0.022887507, Final residual = 2.981245e-09, No Iterations 4
GAMG:  Solving for p, Initial residual = 0.11369279, Final residual = 9.8851578e-05, No Iterations 7
GAMG:  Solving for p, Initial residual = 0.01155665, Final residual = 5.7422766e-06, No Iterations 8
GAMG:  Solving for p, Initial residual = 0.0029638666, Final residual = 1.5134213e-06, No Iterations 8
time step continuity errors : sum local = 5.0212843e-09, global = -7.3926892e-10, cumulative = -6.1445748e-08
ExecutionTime = 1.6 s  ClockTime = 1 s

fieldAverage fieldAverage write:
    Calculating averages

forceCoeffs forceCoeffs_object write:
    Cm    = 0.00036344577
    Cd    = 1.1262323
    Cl    = 0.42826207
    Cl(f) = 0.21449448
    Cl(r) = 0.21376759

fieldMinMax minmaxdomain write:
    min(p) = -0.70204562 at location (2.1464795 0.42727633 0)
    max(p) = 0.55276762 at location (-1.033408 -0.040619346 0)
    min(U) = (-0.5744538 -0.080509245 -8.6995638e-19) at location (1.707579 -0.48173922 0)
    max(U) = (1.3148018 0.27569716 3.0990213e-19) at location (-0.052356638 1.3311564 0)

Time = 39

DILUPBiCGStab:  Solving for Ux, Initial residual = 0.010345726, Final residual = 7.4948264e-09, No Iterations 4
DILUPBiCGStab:  Solving for Uy, Initial residual = 0.021754424, Final residual = 3.2078197e-09, No Iterations 4
GAMG:  Solving for p, Initial residual = 0.10878517, Final residual = 5.697198e-05, No Iterations 8
GAMG:  Solving for p, Initial residual = 0.01169867, Final residual = 7.2549614e-06, No Iterations 8
GAMG:  Solving for p, Initial residual = 0.0032480737, Final residual = 1.765203e-06, No Iterations 8
time step continuity errors : sum local = 5.5943735e-09, global = -8.1475875e-10, cumulative = -6.2260507e-08
ExecutionTime = 1.63 s  ClockTime = 1 s

fieldAverage fieldAverage write:
    Calculating averages

forceCoeffs forceCoeffs_object write:
    Cm    = 0.00058076867
    Cd    = 1.1167577
    Cl    = 0.44439728
    Cl(f) = 0.22277941
    Cl(r) = 0.22161787

fieldMinMax minmaxdomain write:
    min(p) = -0.70396348 at location (2.1464795 0.42727633 0)
    max(p) = 0.55379825 at location (-1.033408 -0.040619346 0)
    min(U) = (-0.57602068 -0.13274062 -9.2191851e-19) at location (2.6619092 -0.10481513 -1.148639e-17)
    max(U) = (1.3133859 0.28058688 3.0587184e-19) at location (-0.052356638 1.3311564 0)

Time = 40

DILUPBiCGStab:  Solving for Ux, Initial residual = 0.009887092, Final residual = 5.1926324e-09, No Iterations 4
DILUPBiCGStab:  Solving for Uy, Initial residual = 0.021081722, Final residual = 3.3900682e-09, No Iterations 4
GAMG:  Solving for p, Initial residual = 0.10584167, Final residual = 4.6981844e-05, No Iterations 8
GAMG:  Solving for p, Initial residual = 0.011479632, Final residual = 8.4654059e-06, No Iterations 8
GAMG:  Solving for p, Initial residual = 0.0034896854, Final residual = 2.1559732e-06, No Iterations 8
time step continuity errors : sum local = 6.6655991e-09, global = -1.0304117e-09, cumulative = -6.3290919e-08
ExecutionTime = 1.67 s  ClockTime = 1 s

fieldAverage fieldAverage write:
    Calculating averages

forceCoeffs forceCoeffs_object write:
    Cm    = 0.00084086246
    Cd    = 1.1038921
    Cl    = 0.45581751
    Cl(f) = 0.22874962
    Cl(r) = 0.22706789

fieldMinMax minmaxdomain write:
    min(p) = -0.70772198 at location (2.2578571 0.44946014 -1.5352781e-17)
    max(p) = 0.554321 at location (-1.033408 -0.040619346 0)
    min(U) = (-0.56546653 -0.030895691 -8.9590583e-19) at location (1.707579 -0.48173922 0)
    max(U) = (1.3124567 0.15878855 2.9387463e-19) at location (0.3099018 1.5571806 0)

Time = 41

DILUPBiCGStab:  Solving for Ux, Initial residual = 0.0094207726, Final residual = 5.269427e-09, No Iterations 4
DILUPBiCGStab:  Solving for Uy, Initial residual = 0.020523398, Final residual = 3.31916e-09, No Iterations 4
GAMG:  Solving for p, Initial residual = 0.10522475, Final residual = 4.7117272e-05, No Iterations 8
GAMG:  Solving for p, Initial residual = 0.01116214, Final residual = 1.004714e-05, No Iterations 8
GAMG:  Solving for p, Initial residual = 0.003546824, Final residual = 1.8704518e-06, No Iterations 8
time step continuity errors : sum local = 5.8900235e-09, global = -8.4193299e-10, cumulative = -6.4132852e-08
ExecutionTime = 1.71 s  ClockTime = 1 s

fieldAverage fieldAverage write:
    Calculating averages

forceCoeffs forceCoeffs_object write:
    Cm    = 0.0011391349
    Cd    = 1.09409
    Cl    = 0.46194561
    Cl(f) = 0.23211194
    Cl(r) = 0.22983367

fieldMinMax minmaxdomain write:
    min(p) = -0.71122395 at location (2.2578571 0.44946014 -1.5352781e-17)
    max(p) = 0.55438945 at location (-1.033408 -0.040619346 0)
    min(U) = (-0.55841039 -0.0043987151 -8.991011e-19) at location (1.707579 -0.48173922 0)
    max(U) = (1.3121534 0.166308 2.8167466e-19) at location (0.3099018 1.5571806 0)

Time = 42

DILUPBiCGStab:  Solving for Ux, Initial residual = 0.0089725192, Final residual = 5.4449325e-09, No Iterations 4
DILUPBiCGStab:  Solving for Uy, Initial residual = 0.01980341, Final residual = 3.21943e-09, No Iterations 4
GAMG:  Solving for p, Initial residual = 0.10428012, Final residual = 4.7256222e-05, No Iterations 8
GAMG:  Solving for p, Initial residual = 0.01105714, Final residual = 5.1602582e-06, No Iterations 9
GAMG:  Solving for p, Initial residual = 0.0034350192, Final residual = 3.1992807e-06, No Iterations 7
time step continuity errors : sum local = 1.0504727e-08, global = 2.537301e-09, cumulative = -6.1595551e-08
ExecutionTime = 1.76 s  ClockTime = 1 s

fieldAverage fieldAverage write:
    Calculating averages

forceCoeffs forceCoeffs_object write:
    Cm    = 0.0014694223
    Cd    = 1.0892139
    Cl    = 0.4624817
    Cl(f) = 0.23271027
    Cl(r) = 0.22977143

fieldMinMax minmaxdomain write:
    min(p) = -0.71571639 at location (2.3733732 0.47246823 0)
    max(p) = 0.55410767 at location (-1.033408 -0.040619346 0)
    min(U) = (-0.47754048 -0.078051159 -7.0495469e-19) at location (1.7570465 -0.64827199 2.0416707e-17)
    max(U) = (1.3113883 0.17432692 2.7006549e-19) at location (0.3099018 1.5571806 0)

Time = 43

DILUPBiCGStab:  Solving for Ux, Initial residual = 0.0085747557, Final residual = 5.1617021e-09, No Iterations 4
DILUPBiCGStab:  Solving for Uy, Initial residual = 0.018956557, Final residual = 3.2669859e-09, No Iterations 4
GAMG:  Solving for p, Initial residual = 0.099140068, Final residual = 4.3390863e-05, No Iterations 8
GAMG:  Solving for p, Initial residual = 0.011154702, Final residual = 6.0440989e-06, No Iterations 9
GAMG:  Solving for p, Initial residual = 0.003388644, Final residual = 2.8550559e-06, No Iterations 7
time step continuity errors : sum local = 9.6155608e-09, global = 2.6128791e-09, cumulative = -5.8982672e-08
ExecutionTime = 1.79 s  ClockTime = 1 s

fieldAverage fieldAverage write:
    Calculating averages

forceCoeffs forceCoeffs_object write:
    Cm    = 0.0018217898
    Cd    = 1.0867416
    Cl    = 0.45743006
    Cl(f) = 0.23053682
    Cl(r) = 0.22689324

fieldMinMax minmaxdomain write:
    min(p) = -0.72179258 at location (2.4013698 0.28458251 2.6162623e-17)
    max(p) = 0.55368147 at location (-1.033408 -0.040619346 0)
    min(U) = (-0.47387011 -0.051827693 -7.0347728e-19) at location (1.7570465 -0.64827199 2.0416707e-17)
    max(U) = (1.3101337 0.18261733 2.6016752e-19) at location (0.3099018 1.5571806 0)

Time = 44

DILUPBiCGStab:  Solving for Ux, Initial residual = 0.0082228579, Final residual = 4.9886791e-09, No Iterations 4
DILUPBiCGStab:  Solving for Uy, Initial residual = 0.018215484, Final residual = 3.635682e-09, No Iterations 4
GAMG:  Solving for p, Initial residual = 0.093596453, Final residual = 9.0518192e-05, No Iterations 7
GAMG:  Solving for p, Initial residual = 0.011500338, Final residual = 6.5658205e-06, No Iterations 9
GAMG:  Solving for p, Initial residual = 0.0035337707, Final residual = 2.5237818e-06, No Iterations 7
time step continuity errors : sum local = 8.4425844e-09, global = 1.8682016e-09, cumulative = -5.711447e-08
ExecutionTime = 1.83 s  ClockTime = 1 s

fieldAverage fieldAverage write:
    Calculating averages

forceCoeffs forceCoeffs_object write:
    Cm    = 0.0021845334
    Cd    = 1.0831896
    Cl    = 0.44696547
    Cl(f) = 0.22566727
    Cl(r) = 0.2212982

fieldMinMax minmaxdomain write:
    min(p) = -0.72584708 at location (2.4013698 0.28458251 2.6162623e-17)
    max(p) = 0.55337536 at location (-1.033408 -0.040619346 0)
    min(U) = (-0.45848742 -0.16116732 -3.3199233e-18) at location (3.0934625 -0.11798168 3.9728248e-17)
    max(U) = (1.3120912 0.26428628 2.5476822e-19) at location (0.055568545 1.4126352 0)

Time = 45

DILUPBiCGStab:  Solving for Ux, Initial residual = 0.0078926215, Final residual = 4.8144797e-09, No Iterations 4
DILUPBiCGStab:  Solving for Uy, Initial residual = 0.017751383, Final residual = 4.6521628e-09, No Iterations 4
GAMG:  Solving for p, Initial residual = 0.091410584, Final residual = 8.7346133e-05, No Iterations 7
GAMG:  Solving for p, Initial residual = 0.011918208, Final residual = 6.4367608e-06, No Iterations 9
GAMG:  Solving for p, Initial residual = 0.003786902, Final residual = 2.1661786e-06, No Iterations 7
time step continuity errors : sum local = 7.0605494e-09, global = 8.0017892e-10, cumulative = -5.6314291e-08
ExecutionTime = 1.87 s  ClockTime = 2 s

fieldAverage fieldAverage write:
    Calculating averages

forceCoeffs forceCoeffs_object write:
    Cm    = 0.0025497418
    Cd    = 1.0771139
    Cl    = 0.43120417
    Cl(f) = 0.21815183
    Cl(r) = 0.21305234

fieldMinMax minmaxdomain write:
    min(p) = -0.7275401 at location (2.5225299 0.29895305 -1.1656745e-17)
    max(p) = 0.55330273 at location (-1.033408 -0.040619346 0)
    min(U) = (-0.47053677 -0.14452542 -3.0811135e-18) at location (3.0934625 -0.11798168 3.9728248e-17)
    max(U) = (1.3088393 0.27071773 2.5206111e-19) at location (0.055568545 1.4126352 0)

Time = 46

DILUPBiCGStab:  Solving for Ux, Initial residual = 0.007576578, Final residual = 4.7756023e-09, No Iterations 4
DILUPBiCGStab:  Solving for Uy, Initial residual = 0.017382589, Final residual = 6.3689871e-09, No Iterations 4
GAMG:  Solving for p, Initial residual = 0.090270518, Final residual = 4.5090405e-05, No Iterations 8
GAMG:  Solving for p, Initial residual = 0.012111273, Final residual = 5.6708422e-06, No Iterations 9
GAMG:  Solving for p, Initial residual = 0.003994435, Final residual = 2.1332145e-06, No Iterations 7
time step continuity errors : sum local = 6.7957388e-09, global = 6.0878953e-10, cumulative = -5.5705502e-08
ExecutionTime = 1.9 s  ClockTime = 2 s

fieldAverage fieldAverage write:
    Calculating averages

forceCoeffs forceCoeffs_object write:
    Cm    = 0.0029093582
    Cd    = 1.0695448
    Cl    = 0.41018008
    Cl(f) = 0.2079994
    Cl(r) = 0.20218068

fieldMinMax minmaxdomain write:
    min(p) = -0.72869425 at location (2.5225299 0.29895305 -1.1656745e-17)
    max(p) = 0.5532898 at location (-1.033408 -0.040619346 0)
    min(U) = (-0.48293486 -0.12379281 -2.8027045e-18) at location (3.0934625 -0.11798168 3.9728248e-17)
    max(U) = (1.3050575 0.27697905 2.4870655e-19) at location (0.055568545 1.4126352 0)

Time = 47

DILUPBiCGStab:  Solving for Ux, Initial residual = 0.0072796654, Final residual = 4.9234993e-09, No Iterations 4
DILUPBiCGStab:  Solving for Uy, Initial residual = 0.016975422, Final residual = 7.7993073e-09, No Iterations 4
GAMG:  Solving for p, Initial residual = 0.088823902, Final residual = 5.5634517e-05, No Iterations 8
GAMG:  Solving for p, Initial residual = 0.011994597, Final residual = 5.6066409e-06, No Iterations 9
GAMG:  Solving for p, Initial residual = 0.0040200751, Final residual = 2.1033748e-06, No Iterations 7
time step continuity errors : sum local = 6.6805375e-09, global = 5.9785634e-10, cumulative = -5.5107645e-08
ExecutionTime = 1.94 s  ClockTime = 2 s

fieldAverage fieldAverage write:
    Calculating averages

forceCoeffs forceCoeffs_object write:
    Cm    = 0.0032519749
    Cd    = 1.0622631
    Cl    = 0.38390991
    Cl(f) = 0.19520693
    Cl(r) = 0.18870298

fieldMinMax minmaxdomain write:
    min(p) = -0.72720678 at location (2.5225299 0.29895305 -1.1656745e-17)
    max(p) = 0.55306156 at location (-1.033408 -0.040619346 0)
    min(U) = (-0.49606567 -0.099185133 -2.4846312e-18) at location (3.0934625 -0.11798168 3.9728248e-17)
    max(U) = (1.3011113 0.21600189 2.1903552e-19) at location (0.3099018 1.5571806 0)

Time = 48

DILUPBiCGStab:  Solving for Ux, Initial residual = 0.0070250076, Final residual = 5.1357857e-09, No Iterations 4
DILUPBiCGStab:  Solving for Uy, Initial residual = 0.016503522, Final residual = 8.578996e-09, No Iterations 4
GAMG:  Solving for p, Initial residual = 0.087007466, Final residual = 5.6891461e-05, No Iterations 8
GAMG:  Solving for p, Initial residual = 0.011768348, Final residual = 5.6189542e-06, No Iterations 9
GAMG:  Solving for p, Initial residual = 0.0038783979, Final residual = 2.1370249e-06, No Iterations 7
time step continuity errors : sum local = 6.9187363e-09, global = 9.5356018e-10, cumulative = -5.4154085e-08
ExecutionTime = 1.98 s  ClockTime = 2 s

fieldAverage fieldAverage write:
    Calculating averages

forceCoeffs forceCoeffs_object write:
    Cm    = 0.0035673852
    Cd    = 1.05623
    Cl    = 0.35249682
    Cl(f) = 0.1798158
    Cl(r) = 0.17268102

fieldMinMax minmaxdomain write:
    min(p) = -0.72765046 at location (2.648192 0.31385754 0)
    max(p) = 0.55237991 at location (-1.033408 -0.040619346 0)
    min(U) = (-0.51035768 -0.070876968 -2.1280826e-18) at location (3.0934625 -0.11798168 3.9728248e-17)
    max(U) = (1.2679881 0.4123109 9.387668e-19) at location (-0.27614962 1.387722 0)

Time = 49

DILUPBiCGStab:  Solving for Ux, Initial residual = 0.0068371182, Final residual = 5.0860346e-09, No Iterations 4
DILUPBiCGStab:  Solving for Uy, Initial residual = 0.016090851, Final residual = 9.0751066e-09, No Iterations 4
GAMG:  Solving for p, Initial residual = 0.083674062, Final residual = 4.0374936e-05, No Iterations 8
GAMG:  Solving for p, Initial residual = 0.011506259, Final residual = 5.7409384e-06, No Iterations 9
GAMG:  Solving for p, Initial residual = 0.0036859248, Final residual = 2.1354423e-06, No Iterations 7
time step continuity errors : sum local = 7.0830465e-09, global = 1.3154567e-09, cumulative = -5.2838629e-08
ExecutionTime = 2.02 s  ClockTime = 2 s

fieldAverage fieldAverage write:
    Calculating averages

forceCoeffs forceCoeffs_object write:
    Cm    = 0.0038432332
    Cd    = 1.0511027
    Cl    = 0.31617429
    Cl(f) = 0.16193038
    Cl(r) = 0.15424391

fieldMinMax minmaxdomain write:
    min(p) = -0.72567345 at location (2.648192 0.31385754 0)
    max(p) = 0.55129553 at location (-1.033408 -0.040619346 0)
    min(U) = (-0.52627912 -0.039090885 -1.7387995e-18) at location (3.0934625 -0.11798168 3.9728248e-17)
    max(U) = (1.2071208 0.53600586 3.3874084e-19) at location (-0.43426382 1.1770706 1.0247292e-17)

Time = 50

DILUPBiCGStab:  Solving for Ux, Initial residual = 0.0067196982, Final residual = 5.1792058e-09, No Iterations 4
DILUPBiCGStab:  Solving for Uy, Initial residual = 0.015893642, Final residual = 9.0989564e-09, No Iterations 4
GAMG:  Solving for p, Initial residual = 0.079994588, Final residual = 4.8245501e-05, No Iterations 8
GAMG:  Solving for p, Initial residual = 0.01141532, Final residual = 5.3863953e-06, No Iterations 9
GAMG:  Solving for p, Initial residual = 0.0035453261, Final residual = 2.0262369e-06, No Iterations 7
time step continuity errors : sum local = 6.8260405e-09, global = 1.388479e-09, cumulative = -5.145015e-08
ExecutionTime = 2.09 s  ClockTime = 2 s

fieldAverage fieldAverage write:
    Calculating averages

    Writing average fields


forceCoeffs forceCoeffs_object write:
    Cm    = 0.0040654645
    Cd    = 1.0459222
    Cl    = 0.27534813
    Cl(f) = 0.14173953
    Cl(r) = 0.1336086

fieldMinMax minmaxdomain write:
    min(p) = -0.72445921 at location (2.7785231 0.32931583 1.0600453e-17)
    max(p) = 0.55009576 at location (-1.033408 -0.040619346 0)
    min(U) = (-0.55322557 -0.086403502 -2.3210693e-18) at location (3.6891468 -0.35253054 2.4515592e-17)
    max(U) = (1.2027688 0.53782584 3.3293015e-19) at location (-0.43426382 1.1770706 1.0247292e-17)

Time = 51

DILUPBiCGStab:  Solving for Ux, Initial residual = 0.0067081348, Final residual = 5.5858562e-09, No Iterations 4
DILUPBiCGStab:  Solving for Uy, Initial residual = 0.015900642, Final residual = 8.0546777e-09, No Iterations 4
GAMG:  Solving for p, Initial residual = 0.078418316, Final residual = 4.6073207e-05, No Iterations 8
GAMG:  Solving for p, Initial residual = 0.011451953, Final residual = 1.1402701e-05, No Iterations 8
GAMG:  Solving for p, Initial residual = 0.0035413058, Final residual = 2.0005676e-06, No Iterations 7
time step continuity errors : sum local = 6.7552934e-09, global = 1.6645521e-09, cumulative = -4.9785597e-08
ExecutionTime = 2.17 s  ClockTime = 2 s

fieldAverage fieldAverage write:
    Calculating averages

forceCoeffs forceCoeffs_object write:
    Cm    = 0.0042216809
    Cd    = 1.0402166
    Cl    = 0.23051512
    Cl(f) = 0.11947924
    Cl(r) = 0.11103588

fieldMinMax minmaxdomain write:
    min(p) = -0.71916685 at location (2.7785231 0.32931583 1.0600453e-17)
    max(p) = 0.54906144 at location (-1.033408 -0.040619346 0)
    min(U) = (-0.17689716 -0.17274762 -1.5336205e-18) at location (3.4929952 0.1178048 -2.4854472e-17)
    max(U) = (1.1978059 0.53932066 3.2702431e-19) at location (-0.43426382 1.1770706 1.0247292e-17)

Time = 52

DILUPBiCGStab:  Solving for Ux, Initial residual = 0.0067968263, Final residual = 6.0451712e-09, No Iterations 4
DILUPBiCGStab:  Solving for Uy, Initial residual = 0.016067803, Final residual = 6.6388984e-09, No Iterations 4
GAMG:  Solving for p, Initial residual = 0.07935928, Final residual = 4.8590039e-05, No Iterations 8
GAMG:  Solving for p, Initial residual = 0.011673321, Final residual = 1.0471497e-05, No Iterations 8
GAMG:  Solving for p, Initial residual = 0.0036589144, Final residual = 1.9272504e-06, No Iterations 7
time step continuity errors : sum local = 6.4596283e-09, global = 1.3257069e-09, cumulative = -4.8459891e-08
ExecutionTime = 2.21 s  ClockTime = 2 s

fieldAverage fieldAverage write:
    Calculating averages

forceCoeffs forceCoeffs_object write:
    Cm    = 0.0043018318
    Cd    = 1.0341778
    Cl    = 0.18226081
    Cl(f) = 0.095432239
    Cl(r) = 0.086828575

fieldMinMax minmaxdomain write:
    min(p) = -0.71280914 at location (2.9136969 0.34534848 2.8660925e-17)
    max(p) = 0.54838052 at location (-1.033408 -0.040619346 0)
    min(U) = (-0.40652467 -0.12015493 -7.8798233e-19) at location (3.7039895 -0.11771138 0)
    max(U) = (1.1922522 0.54047437 3.2098552e-19) at location (-0.43426382 1.1770706 1.0247292e-17)

Time = 53

DILUPBiCGStab:  Solving for Ux, Initial residual = 0.0069799057, Final residual = 6.1484735e-09, No Iterations 4
DILUPBiCGStab:  Solving for Uy, Initial residual = 0.01633763, Final residual = 5.4040713e-09, No Iterations 4
GAMG:  Solving for p, Initial residual = 0.082150838, Final residual = 6.152464e-05, No Iterations 8
GAMG:  Solving for p, Initial residual = 0.012050184, Final residual = 9.2757102e-06, No Iterations 8
GAMG:  Solving for p, Initial residual = 0.0037917867, Final residual = 2.0433542e-06, No Iterations 7
time step continuity errors : sum local = 6.7957286e-09, global = 1.4131772e-09, cumulative = -4.7046713e-08
ExecutionTime = 2.25 s  ClockTime = 2 s

fieldAverage fieldAverage write:
    Calculating averages

forceCoeffs forceCoeffs_object write:
    Cm    = 0.0042999138
    Cd    = 1.0283602
    Cl    = 0.13120167
    Cl(f) = 0.069900749
    Cl(r) = 0.061300921

fieldMinMax minmaxdomain write:
    min(p) = -0.70521244 at location (3.0782751 0.35332728 2.6352342e-17)
    max(p) = 0.54805844 at location (-1.033408 -0.040619346 0)
    min(U) = (-0.45212586 -0.081143513 -6.5744558e-19) at location (3.7039895 -0.11771138 0)
    max(U) = (1.1861252 0.54128443 3.1482603e-19) at location (-0.43426382 1.1770706 1.0247292e-17)

Time = 54

DILUPBiCGStab:  Solving for Ux, Initial residual = 0.0072469642, Final residual = 6.0477118e-09, No Iterations 4
DILUPBiCGStab:  Solving for Uy, Initial residual = 0.016705186, Final residual = 4.4736015e-09, No Iterations 4
GAMG:  Solving for p, Initial residual = 0.085277255, Final residual = 6.695248e-05, No Iterations 8
GAMG:  Solving for p, Initial residual = 0.012564337, Final residual = 8.4603002e-06, No Iterations 8
GAMG:  Solving for p, Initial residual = 0.0038804141, Final residual = 2.0490248e-06, No Iterations 7
time step continuity errors : sum local = 6.8116338e-09, global = 6.3621468e-10, cumulative = -4.6410499e-08
ExecutionTime = 2.28 s  ClockTime = 2 s

fieldAverage fieldAverage write:
    Calculating averages

forceCoeffs forceCoeffs_object write:
    Cm    = 0.0042077135
    Cd    = 1.0230565
    Cl    = 0.078038145
    Cl(f) = 0.043226786
    Cl(r) = 0.034811359

fieldMinMax minmaxdomain write:
    min(p) = -0.69807974 at location (3.0782751 0.35332728 2.6352342e-17)
    max(p) = 0.54798257 at location (-1.033408 -0.040619346 0)
    min(U) = (-0.32567754 -0.039479324 -2.1236881e-19) at location (3.4929952 0.1178048 -2.4854472e-17)
    max(U) = (1.1283162 0.52807498 6.5825954e-19) at location (-0.5925666 1.2854456 0)

Time = 55

DILUPBiCGStab:  Solving for Ux, Initial residual = 0.0075856595, Final residual = 5.9674042e-09, No Iterations 4
DILUPBiCGStab:  Solving for Uy, Initial residual = 0.017191853, Final residual = 3.8902181e-09, No Iterations 4
GAMG:  Solving for p, Initial residual = 0.088571679, Final residual = 6.6949224e-05, No Iterations 8
GAMG:  Solving for p, Initial residual = 0.013084357, Final residual = 8.0466239e-06, No Iterations 8
GAMG:  Solving for p, Initial residual = 0.0039578235, Final residual = 2.4937684e-06, No Iterations 7
time step continuity errors : sum local = 8.3874194e-09, global = -2.353508e-10, cumulative = -4.6645849e-08
ExecutionTime = 2.32 s  ClockTime = 2 s

fieldAverage fieldAverage write:
    Calculating averages

forceCoeffs forceCoeffs_object write:
    Cm    = 0.0040191454
    Cd    = 1.0182972
    Cl    = 0.023550252
    Cl(f) = 0.015794271
    Cl(r) = 0.0077559805

fieldMinMax minmaxdomain write:
    min(p) = -0.68712499 at location (3.2403964 0.58623 1.4018027e-17)
    max(p) = 0.54796204 at location (-1.033408 -0.040619346 0)
    min(U) = (-0.35500667 -0.076266364 -2.7752158e-18) at location (4.6152088 -0.35132271 -1.0727756e-17)
    max(U) = (1.0744778 0.57482616 4.4382293e-19) at location (-0.4933805 1.0702566 0)

Time = 56

DILUPBiCGStab:  Solving for Ux, Initial residual = 0.0079777029, Final residual = 5.7619058e-09, No Iterations 4
DILUPBiCGStab:  Solving for Uy, Initial residual = 0.017750352, Final residual = 3.2827792e-09, No Iterations 4
GAMG:  Solving for p, Initial residual = 0.091716681, Final residual = 6.6135775e-05, No Iterations 8
GAMG:  Solving for p, Initial residual = 0.013711991, Final residual = 7.0677296e-06, No Iterations 8
GAMG:  Solving for p, Initial residual = 0.0040380014, Final residual = 3.1305676e-06, No Iterations 7
time step continuity errors : sum local = 1.0733997e-08, global = -2.9540965e-10, cumulative = -4.6941259e-08
ExecutionTime = 2.35 s  ClockTime = 2 s

fieldAverage fieldAverage write:
    Calculating averages

forceCoeffs forceCoeffs_object write:
    Cm    = 0.0037320229
    Cd    = 1.0140241
    Cl    = -0.031148106
    Cl(f) = -0.01184203
    Cl(r) = -0.019306076

fieldMinMax minmaxdomain write:
    min(p) = -0.6776708 at location (3.2403964 0.58623 1.4018027e-17)
    max(p) = 0.54785014 at location (-1.033408 -0.040619346 0)
    min(U) = (-0.065775215 -0.21288543 -2.1840932e-18) at location (4.3853022 0.11740975 0)
    max(U) = (1.0667858 0.55094971 3.4807319e-19) at location (-0.6914649 1.2348641 0)

Time = 57

DILUPBiCGStab:  Solving for Ux, Initial residual = 0.0084165105, Final residual = 5.7054709e-09, No Iterations 4
DILUPBiCGStab:  Solving for Uy, Initial residual = 0.018373799, Final residual = 2.9273981e-09, No Iterations 4
GAMG:  Solving for p, Initial residual = 0.095430237, Final residual = 6.6232678e-05, No Iterations 8
GAMG:  Solving for p, Initial residual = 0.014607165, Final residual = 6.1108052e-06, No Iterations 8
GAMG:  Solving for p, Initial residual = 0.0041320547, Final residual = 3.9507756e-06, No Iterations 7
time step continuity errors : sum local = 1.3821713e-08, global = 3.7109278e-10, cumulative = -4.6570166e-08
ExecutionTime = 2.39 s  ClockTime = 2 s

fieldAverage fieldAverage write:
    Calculating averages

forceCoeffs forceCoeffs_object write:
    Cm    = 0.0033485849
    Cd    = 1.0104261
    Cl    = -0.084735311
    Cl(f) = -0.03901907
    Cl(r) = -0.04571624

fieldMinMax minmaxdomain write:
    min(p) = -0.67021768 at location (3.4441894 0.5858045 0)
    max(p) = 0.54763593 at location (-1.033408 -0.040619346 0)
    min(U) = (-0.14854883 -0.16075063 -2.1628883e-18) at location (4.3853022 0.11740975 0)
    max(U) = (1.0610901 0.55035445 3.4348317e-19) at location (-0.6914649 1.2348641 0)

Time = 58

DILUPBiCGStab:  Solving for Ux, Initial residual = 0.0088947105, Final residual = 5.6638486e-09, No Iterations 4
DILUPBiCGStab:  Solving for Uy, Initial residual = 0.019066656, Final residual = 2.6292602e-09, No Iterations 4
GAMG:  Solving for p, Initial residual = 0.099938741, Final residual = 7.0098347e-05, No Iterations 8
GAMG:  Solving for p, Initial residual = 0.015491447, Final residual = 6.6041074e-06, No Iterations 8
GAMG:  Solving for p, Initial residual = 0.0043019507, Final residual = 2.028823e-06, No Iterations 8
time step continuity errors : sum local = 7.2063489e-09, global = -5.2437783e-11, cumulative = -4.6622604e-08
ExecutionTime = 2.43 s  ClockTime = 2 s

fieldAverage fieldAverage write:
    Calculating averages

forceCoeffs forceCoeffs_object write:
    Cm    = 0.0028773794
    Cd    = 1.0073838
    Cl    = -0.13545065
    Cl(f) = -0.064847946
    Cl(r) = -0.070602705

fieldMinMax minmaxdomain write:
    min(p) = -0.65626727 at location (3.4441894 0.5858045 0)
    max(p) = 0.54755906 at location (-1.033408 -0.040619346 0)
    min(U) = (-0.24367315 -0.099281136 -1.885771e-18) at location (4.3853022 0.11740975 0)
    max(U) = (1.055069 0.54935073 3.3878128e-19) at location (-0.6914649 1.2348641 0)

Time = 59

DILUPBiCGStab:  Solving for Ux, Initial residual = 0.009379084, Final residual = 5.8377789e-09, No Iterations 4
DILUPBiCGStab:  Solving for Uy, Initial residual = 0.019791482, Final residual = 2.4440697e-09, No Iterations 4
GAMG:  Solving for p, Initial residual = 0.10442362, Final residual = 6.4739521e-05, No Iterations 8
GAMG:  Solving for p, Initial residual = 0.016316952, Final residual = 6.2942746e-06, No Iterations 8
GAMG:  Solving for p, Initial residual = 0.004495846, Final residual = 3.5039588e-06, No Iterations 8
time step continuity errors : sum local = 1.2498156e-08, global = 6.9816511e-10, cumulative = -4.5924439e-08
ExecutionTime = 2.47 s  ClockTime = 2 s

fieldAverage fieldAverage write:
    Calculating averages

forceCoeffs forceCoeffs_object write:
    Cm    = 0.0023316331
    Cd    = 1.0044424
    Cl    = -0.18148052
    Cl(f) = -0.088408628
    Cl(r) = -0.093071894

fieldMinMax minmaxdomain write:
    min(p) = -0.64546128 at location (3.6555723 0.58536315 0)
    max(p) = 0.54801145 at location (-1.033408 -0.040619346 0)
    min(U) = (-0.35149256 -0.026958888 -1.5538141e-18) at location (4.3853022 0.11740975 0)
    max(U) = (1.0487989 0.54796226 3.3403818e-19) at location (-0.6914649 1.2348641 0)

Time = 60

DILUPBiCGStab:  Solving for Ux, Initial residual = 0.0098539073, Final residual = 6.2925265e-09, No Iterations 4
DILUPBiCGStab:  Solving for Uy, Initial residual = 0.020459162, Final residual = 2.4994594e-09, No Iterations 4
GAMG:  Solving for p, Initial residual = 0.10858394, Final residual = 6.7275493e-05, No Iterations 8
GAMG:  Solving for p, Initial residual = 0.017325532, Final residual = 7.9714189e-06, No Iterations 8
GAMG:  Solving for p, Initial residual = 0.0048063724, Final residual = 2.6974685e-06, No Iterations 9
time step continuity errors : sum local = 9.5660338e-09, global = 4.7746428e-10, cumulative = -4.5446975e-08
ExecutionTime = 2.5 s  ClockTime = 2 s

fieldAverage fieldAverage write:
    Calculating averages

forceCoeffs forceCoeffs_object write:
    Cm    = 0.0017263402
    Cd    = 1.0028469
    Cl    = -0.22162325
    Cl(f) = -0.10908528
    Cl(r) = -0.11253797

fieldMinMax minmaxdomain write:
    min(p) = -0.62502424 at location (3.8748278 0.58490537 0)
    max(p) = 0.54894859 at location (-1.033408 -0.040619346 0)
    min(U) = (-0.332645 -0.020909103 -6.8373692e-19) at location (4.6295287 0.11730163 -5.0327717e-17)
    max(U) = (1.0423704 0.54621865 3.2942268e-19) at location (-0.6914649 1.2348641 0)

Time = 61

DILUPBiCGStab:  Solving for Ux, Initial residual = 0.01033009, Final residual = 6.3905641e-09, No Iterations 4
DILUPBiCGStab:  Solving for Uy, Initial residual = 0.021063603, Final residual = 2.7349748e-09, No Iterations 4
GAMG:  Solving for p, Initial residual = 0.11466927, Final residual = 6.8927038e-05, No Iterations 8
GAMG:  Solving for p, Initial residual = 0.018679279, Final residual = 8.7668348e-06, No Iterations 8
GAMG:  Solving for p, Initial residual = 0.0051178036, Final residual = 3.0076432e-06, No Iterations 9
time step continuity errors : sum local = 1.0579054e-08, global = 2.3854009e-10, cumulative = -4.5208435e-08
ExecutionTime = 2.54 s  ClockTime = 2 s

fieldAverage fieldAverage write:
    Calculating averages

forceCoeffs forceCoeffs_object write:
    Cm    = 0.0010747197
    Cd    = 1.0045646
    Cl    = -0.25529461
    Cl(f) = -0.12657258
    Cl(r) = -0.12872202

fieldMinMax minmaxdomain write:
    min(p) = -0.62494342 at location (2.6964363 -0.76082194 3.0975632e-17)
    max(p) = 0.54993911 at location (-1.033408 -0.040619346 0)
    min(U) = (-0.099817781 -0.24988379 -2.7295072e-19) at location (1.1770706 -0.43426382 2.0452178e-17)
    max(U) = (1.0840322 0.52534211 5.8587365e-19) at location (-0.5925666 1.2854456 0)

Time = 62

DILUPBiCGStab:  Solving for Ux, Initial residual = 0.010811155, Final residual = 6.2647472e-09, No Iterations 4
DILUPBiCGStab:  Solving for Uy, Initial residual = 0.021584452, Final residual = 2.7447673e-09, No Iterations 4
GAMG:  Solving for p, Initial residual = 0.12239181, Final residual = 6.8007288e-05, No Iterations 8
GAMG:  Solving for p, Initial residual = 0.020161136, Final residual = 9.5534456e-06, No Iterations 8
GAMG:  Solving for p, Initial residual = 0.005580039, Final residual = 2.7749659e-06, No Iterations 9
time step continuity errors : sum local = 9.8044543e-09, global = -7.9538495e-11, cumulative = -4.5287973e-08
ExecutionTime = 2.59 s  ClockTime = 2 s

fieldAverage fieldAverage write:
    Calculating averages

forceCoeffs forceCoeffs_object write:
    Cm    = 0.00039067235
    Cd    = 1.0090503
    Cl    = -0.28131356
    Cl(f) = -0.14026611
    Cl(r) = -0.14104745

fieldMinMax minmaxdomain write:
    min(p) = -0.64478906 at location (2.6964363 -0.76082194 3.0975632e-17)
    max(p) = 0.55063392 at location (-1.033408 -0.040619346 0)
    min(U) = (-0.14825835 -0.18531347 -3.6528392e-19) at location (1.2301888 -0.2447727 9.4776735e-18)
    max(U) = (1.1755278 0.44660616 6.9693024e-19) at location (-0.27614962 1.387722 0)

Time = 63

DILUPBiCGStab:  Solving for Ux, Initial residual = 0.011232558, Final residual = 6.0647766e-09, No Iterations 4
DILUPBiCGStab:  Solving for Uy, Initial residual = 0.022026964, Final residual = 2.7428102e-09, No Iterations 4
GAMG:  Solving for p, Initial residual = 0.12735853, Final residual = 5.4336116e-05, No Iterations 8
GAMG:  Solving for p, Initial residual = 0.021550887, Final residual = 1.0697666e-05, No Iterations 8
GAMG:  Solving for p, Initial residual = 0.0061580379, Final residual = 2.4147643e-06, No Iterations 9
time step continuity errors : sum local = 8.6193356e-09, global = -3.1971404e-10, cumulative = -4.5607687e-08
ExecutionTime = 2.62 s  ClockTime = 2 s

fieldAverage fieldAverage write:
    Calculating averages

forceCoeffs forceCoeffs_object write:
    Cm    = -0.00031106233
    Cd    = 1.0137186
    Cl    = -0.29728726
    Cl(f) = -0.14895469
    Cl(r) = -0.14833257

fieldMinMax minmaxdomain write:
    min(p) = -0.6603876 at location (2.6964363 -0.76082194 3.0975632e-17)
    max(p) = 0.55126284 at location (-1.033408 -0.040619346 0)
    min(U) = (-0.091096991 -0.30343007 -2.3881753e-19) at location (1.1770706 -0.43426382 2.0452178e-17)
[...]
GAMG:  Solving for p, Initial residual = 0.012279777, Final residual = 7.554205e-06, No Iterations 7
time step continuity errors : sum local = 2.6184551e-08, global = 1.2135412e-09, cumulative = 7.9425171e-07
ExecutionTime = 72.31 s  ClockTime = 72 s

forceCoeffs forceCoeffs_object write:
    Cm    = -0.0025670142
    Cd    = 1.0727091
    Cl    = -0.064218624
    Cl(f) = -0.034676326
    Cl(r) = -0.029542298

fieldMinMax minmaxdomain write:
    min(p) = -0.47038656 at location (-0.20179877 -1.0144308 0)
    max(p) = 0.54898384 at location (-1.033408 0.040619346 0)
    min(U) = (-0.1971134 -0.13748205 -3.396533e-19) at location (2.4139601 -0.095040936 0)
    max(U) = (1.2115053 0.1427607 1.97403e-19) at location (1.6506235 2.0944851 0)

Time = 1985

DILUPBiCGStab:  Solving for Ux, Initial residual = 0.017907424, Final residual = 4.1217378e-09, No Iterations 4
DILUPBiCGStab:  Solving for Uy, Initial residual = 0.043436607, Final residual = 1.4475115e-09, No Iterations 5
GAMG:  Solving for p, Initial residual = 0.22746326, Final residual = 0.00018433549, No Iterations 7
GAMG:  Solving for p, Initial residual = 0.043396894, Final residual = 3.9546398e-05, No Iterations 7
GAMG:  Solving for p, Initial residual = 0.0121576, Final residual = 8.6729029e-06, No Iterations 7
time step continuity errors : sum local = 3.0244772e-08, global = 3.6965657e-10, cumulative = 7.9462137e-07
ExecutionTime = 72.35 s  ClockTime = 72 s

forceCoeffs forceCoeffs_object write:
    Cm    = -0.0024532758
    Cd    = 1.0745269
    Cl    = -0.030548338
    Cl(f) = -0.017727445
    Cl(r) = -0.012820893

fieldMinMax minmaxdomain write:
    min(p) = -0.46395204 at location (-0.20179877 -1.0144308 0)
    max(p) = 0.5482023 at location (-1.033408 0.040619346 0)
    min(U) = (-0.2227653 -0.1667645 -2.6627885e-19) at location (2.5356734 0.099838898 -3.578376e-17)
    max(U) = (1.2104324 0.25258091 2.3047762e-19) at location (0.3099018 1.5571806 0)

Time = 1986

DILUPBiCGStab:  Solving for Ux, Initial residual = 0.017955221, Final residual = 1.3231274e-09, No Iterations 5
DILUPBiCGStab:  Solving for Uy, Initial residual = 0.042515746, Final residual = 1.7202124e-09, No Iterations 5
GAMG:  Solving for p, Initial residual = 0.22273562, Final residual = 0.00021037423, No Iterations 7
GAMG:  Solving for p, Initial residual = 0.043273222, Final residual = 4.3051135e-05, No Iterations 7
GAMG:  Solving for p, Initial residual = 0.011910173, Final residual = 8.601213e-06, No Iterations 7
time step continuity errors : sum local = 3.0006396e-08, global = 1.2411361e-09, cumulative = 7.958625e-07
ExecutionTime = 72.39 s  ClockTime = 72 s

forceCoeffs forceCoeffs_object write:
    Cm    = -0.0021645963
    Cd    = 1.0758482
    Cl    = 0.0054070726
    Cl(f) = 0.00053893994
    Cl(r) = 0.0048681326

fieldMinMax minmaxdomain write:
    min(p) = -0.45662611 at location (-0.20179877 -1.0144308 0)
    max(p) = 0.5474349 at location (-1.033408 0.040619346 0)
    min(U) = (-0.21527523 -0.2055203 -1.4647348e-19) at location (2.5356734 0.099838898 -3.578376e-17)
    max(U) = (1.2117867 0.25064371 2.3523734e-19) at location (0.3099018 1.5571806 0)

Time = 1987

DILUPBiCGStab:  Solving for Ux, Initial residual = 0.018015076, Final residual = 5.9970192e-10, No Iterations 5
DILUPBiCGStab:  Solving for Uy, Initial residual = 0.041753212, Final residual = 2.5380742e-09, No Iterations 5
GAMG:  Solving for p, Initial residual = 0.21569973, Final residual = 0.00011146815, No Iterations 8
GAMG:  Solving for p, Initial residual = 0.043406444, Final residual = 1.6748754e-05, No Iterations 8
GAMG:  Solving for p, Initial residual = 0.011766587, Final residual = 8.5520495e-06, No Iterations 7
time step continuity errors : sum local = 2.9382231e-08, global = 1.9616796e-09, cumulative = 7.9782418e-07
ExecutionTime = 72.42 s  ClockTime = 72 s

forceCoeffs forceCoeffs_object write:
    Cm    = -0.0017151035
    Cd    = 1.0746695
    Cl    = 0.0407444
    Cl(f) = 0.018657096
    Cl(r) = 0.022087303

fieldMinMax minmaxdomain write:
    min(p) = -0.45870167 at location (-0.20179877 1.0144308 0)
    max(p) = 0.54727276 at location (-1.033408 0.040619346 0)
    min(U) = (-0.23107634 -0.25065107 -6.382092e-19) at location (3.0934625 0.11798168 -3.8957323e-17)
    max(U) = (1.2112804 0.12263303 2.4117131e-19) at location (1.6506235 2.0944851 0)

Time = 1988

DILUPBiCGStab:  Solving for Ux, Initial residual = 0.0180941, Final residual = 7.2647596e-09, No Iterations 4
DILUPBiCGStab:  Solving for Uy, Initial residual = 0.04128129, Final residual = 7.2938568e-09, No Iterations 4
GAMG:  Solving for p, Initial residual = 0.21025425, Final residual = 0.00010890893, No Iterations 8
GAMG:  Solving for p, Initial residual = 0.043851948, Final residual = 1.7949079e-05, No Iterations 8
GAMG:  Solving for p, Initial residual = 0.011666833, Final residual = 8.0551697e-06, No Iterations 7
time step continuity errors : sum local = 2.6932282e-08, global = 2.1709071e-09, cumulative = 7.9999509e-07
ExecutionTime = 72.46 s  ClockTime = 72 s

forceCoeffs forceCoeffs_object write:
    Cm    = -0.0011356171
    Cd    = 1.0712651
    Cl    = 0.072645887
    Cl(f) = 0.035187326
    Cl(r) = 0.03745856

fieldMinMax minmaxdomain write:
    min(p) = -0.46675846 at location (-0.20179877 1.0144308 0)
    max(p) = 0.54770845 at location (-1.033408 0.040619346 0)
    min(U) = (-0.2311604 -0.28551189 -5.8962299e-19) at location (3.0934625 0.11798168 -3.8957323e-17)
    max(U) = (1.2162163 0.24656833 2.391905e-19) at location (0.3099018 1.5571806 0)

Time = 1989

DILUPBiCGStab:  Solving for Ux, Initial residual = 0.018155299, Final residual = 3.3141606e-09, No Iterations 4
DILUPBiCGStab:  Solving for Uy, Initial residual = 0.04126418, Final residual = 6.1342129e-09, No Iterations 4
GAMG:  Solving for p, Initial residual = 0.20765156, Final residual = 8.7091797e-05, No Iterations 8
GAMG:  Solving for p, Initial residual = 0.044196064, Final residual = 2.046796e-05, No Iterations 8
GAMG:  Solving for p, Initial residual = 0.011688081, Final residual = 7.0303762e-06, No Iterations 7
time step continuity errors : sum local = 2.2904394e-08, global = 1.46484e-09, cumulative = 8.0145993e-07
ExecutionTime = 72.5 s  ClockTime = 72 s

forceCoeffs forceCoeffs_object write:
    Cm    = -0.00047094454
    Cd    = 1.0663754
    Cl    = 0.09899549
    Cl(f) = 0.049026801
    Cl(r) = 0.04996869

fieldMinMax minmaxdomain write:
    min(p) = -0.47266582 at location (-0.20179877 1.0144308 0)
    max(p) = 0.54873355 at location (-1.033408 -0.040619346 0)
    min(U) = (-0.23498033 -0.29837793 -4.3000791e-19) at location (3.0934625 0.11798168 -3.8957323e-17)
    max(U) = (1.2188203 0.2448535 2.3804583e-19) at location (0.3099018 1.5571806 0)

Time = 1990

DILUPBiCGStab:  Solving for Ux, Initial residual = 0.018206305, Final residual = 1.9166528e-09, No Iterations 4
DILUPBiCGStab:  Solving for Uy, Initial residual = 0.041662319, Final residual = 7.805001e-09, No Iterations 4
GAMG:  Solving for p, Initial residual = 0.20727894, Final residual = 0.00018195506, No Iterations 7
GAMG:  Solving for p, Initial residual = 0.044231653, Final residual = 2.3519066e-05, No Iterations 8
GAMG:  Solving for p, Initial residual = 0.011893601, Final residual = 7.7350965e-06, No Iterations 7
time step continuity errors : sum local = 2.5049641e-08, global = -2.1944724e-10, cumulative = 8.0124048e-07
ExecutionTime = 72.53 s  ClockTime = 73 s

forceCoeffs forceCoeffs_object write:
    Cm    = 0.00022566876
    Cd    = 1.0623846
    Cl    = 0.11847214
    Cl(f) = 0.059461739
    Cl(r) = 0.059010402

fieldMinMax minmaxdomain write:
    min(p) = -0.47685071 at location (-0.20179877 1.0144308 0)
    max(p) = 0.54992086 at location (-1.033408 -0.040619346 0)
    min(U) = (-0.24166805 -0.25222554 -5.5024199e-19) at location (4.3708443 0.35164143 -3.2497584e-17)
    max(U) = (1.2241084 0.1040412 2.0818903e-19) at location (1.6506235 2.0944851 0)

Time = 1991

DILUPBiCGStab:  Solving for Ux, Initial residual = 0.018206069, Final residual = 1.5605229e-09, No Iterations 4
DILUPBiCGStab:  Solving for Uy, Initial residual = 0.042302913, Final residual = 7.6526518e-10, No Iterations 5
GAMG:  Solving for p, Initial residual = 0.21332173, Final residual = 0.00013914703, No Iterations 7
GAMG:  Solving for p, Initial residual = 0.043905956, Final residual = 2.1166351e-05, No Iterations 8
GAMG:  Solving for p, Initial residual = 0.012001751, Final residual = 9.5488747e-06, No Iterations 7
time step continuity errors : sum local = 3.1262235e-08, global = -2.3079715e-09, cumulative = 7.9893251e-07
ExecutionTime = 72.57 s  ClockTime = 73 s

forceCoeffs forceCoeffs_object write:
    Cm    = 0.00089976459
    Cd    = 1.060399
    Cl    = 0.12956892
    Cl(f) = 0.065684223
    Cl(r) = 0.063884694

fieldMinMax minmaxdomain write:
    min(p) = -0.47948574 at location (-0.20179877 1.0144308 0)
    max(p) = 0.55063703 at location (-1.033408 -0.040619346 0)
    min(U) = (-0.24763977 -0.30108671 -4.4804497e-19) at location (3.2895769 0.11789485 5.027965e-17)
    max(U) = (1.2449982 0.13937237 2.6254611e-19) at location (4.6949589 -2.0341466 -1.3910661e-17)

Time = 1992

DILUPBiCGStab:  Solving for Ux, Initial residual = 0.018158695, Final residual = 1.9524771e-09, No Iterations 4
DILUPBiCGStab:  Solving for Uy, Initial residual = 0.043150796, Final residual = 8.8293233e-10, No Iterations 5
GAMG:  Solving for p, Initial residual = 0.21430627, Final residual = 0.00019591815, No Iterations 7
GAMG:  Solving for p, Initial residual = 0.043270857, Final residual = 3.9884561e-05, No Iterations 7
GAMG:  Solving for p, Initial residual = 0.011884577, Final residual = 9.9790108e-06, No Iterations 7
time step continuity errors : sum local = 3.3320974e-08, global = -2.1107697e-09, cumulative = 7.9682174e-07
ExecutionTime = 72.6 s  ClockTime = 73 s

forceCoeffs forceCoeffs_object write:
    Cm    = 0.0015012872
    Cd    = 1.0605747
    Cl    = 0.13152803
    Cl(f) = 0.067265301
    Cl(r) = 0.064262727

fieldMinMax minmaxdomain write:
    min(p) = -0.48045577 at location (-0.20179877 1.0144308 0)
    max(p) = 0.55090878 at location (-1.033408 -0.040619346 0)
    min(U) = (-0.25040186 -0.27189954 -5.4409467e-19) at location (3.2895769 0.11789485 5.027965e-17)
    max(U) = (1.2640648 0.11501605 2.6242137e-19) at location (4.6949589 -2.0341466 -1.3910661e-17)

Time = 1993

DILUPBiCGStab:  Solving for Ux, Initial residual = 0.018071375, Final residual = 2.2618444e-09, No Iterations 4
DILUPBiCGStab:  Solving for Uy, Initial residual = 0.043944129, Final residual = 1.0687475e-09, No Iterations 5
GAMG:  Solving for p, Initial residual = 0.21665481, Final residual = 0.00011553804, No Iterations 8
GAMG:  Solving for p, Initial residual = 0.042796044, Final residual = 2.4324672e-05, No Iterations 7
GAMG:  Solving for p, Initial residual = 0.011855176, Final residual = 1.0357423e-05, No Iterations 7
time step continuity errors : sum local = 3.5062703e-08, global = -1.976196e-10, cumulative = 7.9662412e-07
ExecutionTime = 72.64 s  ClockTime = 73 s

forceCoeffs forceCoeffs_object write:
    Cm    = 0.0019914107
    Cd    = 1.0634503
    Cl    = 0.12481944
    Cl(f) = 0.06440113
    Cl(r) = 0.060418308

fieldMinMax minmaxdomain write:
    min(p) = -0.48007868 at location (-0.20179877 1.0144308 0)
    max(p) = 0.55070432 at location (-1.033408 -0.040619346 0)
    min(U) = (-0.24941787 -0.22397926 -6.3915362e-19) at location (3.2895769 0.11789485 5.027965e-17)
    max(U) = (1.2273324 0.24275117 2.2395912e-19) at location (0.3099018 1.5571806 0)

Time = 1994

DILUPBiCGStab:  Solving for Ux, Initial residual = 0.017975452, Final residual = 2.7101203e-09, No Iterations 4
DILUPBiCGStab:  Solving for Uy, Initial residual = 0.044475929, Final residual = 1.3367418e-09, No Iterations 5
GAMG:  Solving for p, Initial residual = 0.2203477, Final residual = 0.00011734115, No Iterations 8
GAMG:  Solving for p, Initial residual = 0.043327991, Final residual = 1.779351e-05, No Iterations 7
GAMG:  Solving for p, Initial residual = 0.012096231, Final residual = 1.0554609e-05, No Iterations 7
time step continuity errors : sum local = 3.5887038e-08, global = 1.0351561e-09, cumulative = 7.9765928e-07
ExecutionTime = 72.67 s  ClockTime = 73 s

forceCoeffs forceCoeffs_object write:
    Cm    = 0.0023421739
    Cd    = 1.0667107
    Cl    = 0.10959782
    Cl(f) = 0.057141083
    Cl(r) = 0.052456736

fieldMinMax minmaxdomain write:
    min(p) = -0.47785856 at location (-0.20179877 1.0144308 0)
    max(p) = 0.55036336 at location (-1.033408 -0.040619346 0)
    min(U) = (-0.25575161 -0.17150413 -1.0496267e-18) at location (3.2895769 -0.11789485 -5.1436037e-17)
    max(U) = (1.2284761 0.24337347 2.1993442e-19) at location (0.3099018 1.5571806 0)

Time = 1995

DILUPBiCGStab:  Solving for Ux, Initial residual = 0.017936006, Final residual = 3.0196627e-09, No Iterations 4
DILUPBiCGStab:  Solving for Uy, Initial residual = 0.044590665, Final residual = 1.8512395e-09, No Iterations 5
GAMG:  Solving for p, Initial residual = 0.22630339, Final residual = 0.00010556547, No Iterations 8
GAMG:  Solving for p, Initial residual = 0.043552114, Final residual = 2.0981023e-05, No Iterations 7
GAMG:  Solving for p, Initial residual = 0.012316749, Final residual = 1.1344256e-05, No Iterations 7
time step continuity errors : sum local = 3.8880931e-08, global = -1.4523914e-09, cumulative = 7.9620689e-07
ExecutionTime = 72.71 s  ClockTime = 73 s

forceCoeffs forceCoeffs_object write:
    Cm    = 0.0025360811
    Cd    = 1.0702556
    Cl    = 0.086658363
    Cl(f) = 0.045865263
    Cl(r) = 0.040793101

fieldMinMax minmaxdomain write:
    min(p) = -0.474187 at location (-0.20179877 1.0144308 0)
    max(p) = 0.54970081 at location (-1.033408 -0.040619346 0)
    min(U) = (-0.26198894 -0.097509037 -1.2157972e-18) at location (3.2895769 -0.11789485 -5.1436037e-17)
    max(U) = (1.2291012 0.24434345 2.1605923e-19) at location (0.3099018 1.5571806 0)

Time = 1996

DILUPBiCGStab:  Solving for Ux, Initial residual = 0.017909937, Final residual = 3.1498383e-09, No Iterations 4
DILUPBiCGStab:  Solving for Uy, Initial residual = 0.044128896, Final residual = 9.5304739e-09, No Iterations 4
GAMG:  Solving for p, Initial residual = 0.23055589, Final residual = 0.00011446969, No Iterations 8
GAMG:  Solving for p, Initial residual = 0.043482108, Final residual = 2.9689088e-05, No Iterations 7
GAMG:  Solving for p, Initial residual = 0.012258657, Final residual = 1.190411e-05, No Iterations 7
time step continuity errors : sum local = 4.1267419e-08, global = -1.9268679e-09, cumulative = 7.9428002e-07
ExecutionTime = 72.74 s  ClockTime = 73 s

forceCoeffs forceCoeffs_object write:
    Cm    = 0.0025590124
    Cd    = 1.0730716
    Cl    = 0.056950318
    Cl(f) = 0.031034171
    Cl(r) = 0.025916147

fieldMinMax minmaxdomain write:
    min(p) = -0.46898929 at location (-0.20179877 1.0144308 0)
    max(p) = 0.54884121 at location (-1.033408 -0.040619346 0)
    min(U) = (-0.2580886 -0.013067611 -1.3035599e-18) at location (3.2895769 -0.11789485 -5.1436037e-17)
    max(U) = (1.2291716 0.24559165 2.1231675e-19) at location (0.3099018 1.5571806 0)

Time = 1997

DILUPBiCGStab:  Solving for Ux, Initial residual = 0.017917791, Final residual = 3.3849223e-09, No Iterations 4
DILUPBiCGStab:  Solving for Uy, Initial residual = 0.043237694, Final residual = 2.0117995e-09, No Iterations 5
GAMG:  Solving for p, Initial residual = 0.22644875, Final residual = 0.00011214835, No Iterations 8
GAMG:  Solving for p, Initial residual = 0.043292661, Final residual = 2.8221814e-05, No Iterations 7
GAMG:  Solving for p, Initial residual = 0.012109479, Final residual = 1.1735906e-05, No Iterations 7
time step continuity errors : sum local = 4.1056543e-08, global = 4.4185731e-11, cumulative = 7.9432421e-07
ExecutionTime = 72.78 s  ClockTime = 73 s

forceCoeffs forceCoeffs_object write:
    Cm    = 0.0024045282
    Cd    = 1.0749933
    Cl    = 0.022425172
    Cl(f) = 0.013617114
    Cl(r) = 0.0088080579

fieldMinMax minmaxdomain write:
    min(p) = -0.46240239 at location (-0.20179877 1.0144308 0)
    max(p) = 0.54797228 at location (-1.033408 -0.040619346 0)
    min(U) = (-0.19343582 -0.29887657 -8.144624e-19) at location (4.6152088 -0.35132271 -1.0727756e-17)
    max(U) = (1.2334476 0.170587 9.9795543e-20) at location (1.0161541 1.8148884 -1.7980726e-17)

Time = 1998

DILUPBiCGStab:  Solving for Ux, Initial residual = 0.017964727, Final residual = 5.9645159e-09, No Iterations 4
DILUPBiCGStab:  Solving for Uy, Initial residual = 0.042335793, Final residual = 2.1996683e-09, No Iterations 5
GAMG:  Solving for p, Initial residual = 0.22140784, Final residual = 0.00011500803, No Iterations 8
GAMG:  Solving for p, Initial residual = 0.043380191, Final residual = 2.780838e-05, No Iterations 7
GAMG:  Solving for p, Initial residual = 0.011868119, Final residual = 1.0835518e-05, No Iterations 7
time step continuity errors : sum local = 3.7702184e-08, global = 1.0614164e-09, cumulative = 7.9538562e-07
ExecutionTime = 72.82 s  ClockTime = 73 s

forceCoeffs forceCoeffs_object write:
    Cm    = 0.0020770172
    Cd    = 1.0758871
    Cl    = -0.013627053
    Cl(f) = -0.0047365095
    Cl(r) = -0.0088905439

fieldMinMax minmaxdomain write:
    min(p) = -0.4548185 at location (-0.20179877 1.0144308 0)
    max(p) = 0.54729207 at location (-1.033408 -0.040619346 0)
    min(U) = (-0.02217112 -0.44577862 -7.4156071e-19) at location (6.940893 0.11627835 0)
    max(U) = (1.2320679 0.24844581 1.0811895e-19) at location (0.32772426 1.6466613 2.5123342e-17)

Time = 1999

DILUPBiCGStab:  Solving for Ux, Initial residual = 0.018044704, Final residual = 8.7809924e-10, No Iterations 5
DILUPBiCGStab:  Solving for Uy, Initial residual = 0.041621845, Final residual = 3.1468243e-09, No Iterations 5
GAMG:  Solving for p, Initial residual = 0.21397492, Final residual = 0.00010643973, No Iterations 8
GAMG:  Solving for p, Initial residual = 0.043658607, Final residual = 3.046927e-05, No Iterations 7
GAMG:  Solving for p, Initial residual = 0.0117404, Final residual = 9.7092987e-06, No Iterations 7
time step continuity errors : sum local = 3.3125374e-08, global = 1.0901487e-09, cumulative = 7.9647577e-07
ExecutionTime = 72.85 s  ClockTime = 73 s

forceCoeffs forceCoeffs_object write:
    Cm    = 0.0015943031
    Cd    = 1.0741337
    Cl    = -0.048448412
    Cl(f) = -0.022629903
    Cl(r) = -0.025818509

fieldMinMax minmaxdomain write:
    min(p) = -0.46073995 at location (-0.20179877 -1.0144308 0)
    max(p) = 0.54730386 at location (-1.033408 -0.040619346 0)
    min(U) = (-0.17853203 -0.12842717 -1.0262147e-18) at location (4.6152088 -0.35132271 -1.0727756e-17)
    max(U) = (1.2259849 0.25025432 2.0376434e-19) at location (0.3099018 1.5571806 0)

Time = 2000

DILUPBiCGStab:  Solving for Ux, Initial residual = 0.018103047, Final residual = 9.0600286e-09, No Iterations 4
DILUPBiCGStab:  Solving for Uy, Initial residual = 0.041227624, Final residual = 8.0230906e-09, No Iterations 4
GAMG:  Solving for p, Initial residual = 0.20986834, Final residual = 0.00014035238, No Iterations 7
GAMG:  Solving for p, Initial residual = 0.044270831, Final residual = 3.7847646e-05, No Iterations 7
GAMG:  Solving for p, Initial residual = 0.01169582, Final residual = 9.7090353e-06, No Iterations 7
time step continuity errors : sum local = 3.2123336e-08, global = 7.9964922e-10, cumulative = 7.9727542e-07
ExecutionTime = 72.91 s  ClockTime = 73 s

forceCoeffs forceCoeffs_object write:
    Cm    = 0.00099086622
    Cd    = 1.0701239
    Cl    = -0.079238648
    Cl(f) = -0.038628458
    Cl(r) = -0.04061019

fieldMinMax minmaxdomain write:
    min(p) = -0.46823521 at location (-0.20179877 -1.0144308 0)
    max(p) = 0.54795011 at location (-1.033408 -0.040619346 0)
    min(U) = (-0.09969795 -0.3069078 -1.0308091e-18) at location (5.6561048 -0.58118625 -1.8985047e-17)
    max(U) = (1.2239327 0.25184672 2.0201986e-19) at location (0.3099018 1.5571806 0)

End

