/*---------------------------------------------------------------------------*\
| =========                 |                                                 |
| \\      /  F ield         | OpenFOAM: The Open Source CFD Toolbox           |
|  \\    /   O peration     | Version:  2112                                  |
|   \\  /    A nd           | Website:  www.openfoam.com                      |
|    \\/     M anipulation  |                                                 |
\*---------------------------------------------------------------------------*/
Build  : _14aeaf8dab-20211220 OPENFOAM=2112 version=v2112
Arch   : "LSB;label=32;scalar=64"
Exec   : decomposePar
Date   : Jun 12 2022
Time   : 01:05:47
Host   : Songruis-MacBook-Air.local
PID    : 4106
I/O    : uncollated
Case   : /Users/songruili/Documents/Learn/10th_OpenFOAM_3_weeks/6_taylorCouetteFlow/taylor_couette_parallel
nProcs : 1
trapFpe: Floating point exception trapping - not supported on this platform
fileModificationChecking : Monitoring run-time modified files using timeStampMaster (fileModificationSkew 5, maxFileModificationPolls 20)
allowSystemOperations : Allowing user-supplied system call operations

// * * * * * * * * * * * * * * * * * * * * * * * * * * * * * * * * * * * * * //
Create time



Decomposing mesh

Create mesh

Calculating distribution of cells
Decomposition method hierarchical [8] (region region0)

Finished decomposition in 0.05 s

Calculating original mesh data

Distributing cells to processors

Distributing faces to processors

Distributing points to processors

Constructing processor meshes

Processor 0
    Number of cells = 32233
    Number of faces shared with processor 1 = 238
    Number of faces shared with processor 2 = 238
    Number of faces shared with processor 4 = 1354
    Number of processor patches = 3
    Number of processor faces = 1830
    Number of boundary faces = 7140

Processor 1
    Number of cells = 32233
    Number of faces shared with processor 0 = 238
    Number of faces shared with processor 3 = 238
    Number of faces shared with processor 5 = 1354
    Number of processor patches = 3
    Number of processor faces = 1830
    Number of boundary faces = 7140

Processor 2
    Number of cells = 32233
    Number of faces shared with processor 0 = 238
    Number of faces shared with processor 3 = 238
    Number of faces shared with processor 6 = 1354
    Number of processor patches = 3
    Number of processor faces = 1830
    Number of boundary faces = 7140

Processor 3
    Number of cells = 32233
    Number of faces shared with processor 1 = 238
    Number of faces shared with processor 2 = 238
    Number of faces shared with processor 7 = 1354
    Number of processor patches = 3
    Number of processor faces = 1830
    Number of boundary faces = 7140

Processor 4
    Number of cells = 32233
    Number of faces shared with processor 0 = 1354
    Number of faces shared with processor 5 = 238
    Number of faces shared with processor 6 = 238
    Number of processor patches = 3
    Number of processor faces = 1830
    Number of boundary faces = 7140

Processor 5
    Number of cells = 32233
    Number of faces shared with processor 1 = 1354
    Number of faces shared with processor 4 = 238
    Number of faces shared with processor 7 = 238
    Number of processor patches = 3
    Number of processor faces = 1830
    Number of boundary faces = 7140

Processor 6
    Number of cells = 32233
    Number of faces shared with processor 2 = 1354
    Number of faces shared with processor 4 = 238
    Number of faces shared with processor 7 = 238
    Number of processor patches = 3
    Number of processor faces = 1830
    Number of boundary faces = 7140

Processor 7
    Number of cells = 32233
    Number of faces shared with processor 3 = 1354
    Number of faces shared with processor 5 = 238
    Number of faces shared with processor 6 = 238
    Number of processor patches = 3
    Number of processor faces = 1830
    Number of boundary faces = 7140

Number of processor faces = 7320
Max number of cells = 32233 (0% above average 32233)
Max number of processor patches = 3 (0% above average 3)
Max number of faces between processors = 1830 (0% above average 1830)

Time = 0

Processor 0: field transfer
Processor 1: field transfer
Processor 2: field transfer
Processor 3: field transfer
Processor 4: field transfer
Processor 5: field transfer
Processor 6: field transfer
Processor 7: field transfer

End

