/*---------------------------------------------------------------------------*\
| =========                 |                                                 |
| \\      /  F ield         | OpenFOAM: The Open Source CFD Toolbox           |
|  \\    /   O peration     | Version:  2112                                  |
|   \\  /    A nd           | Website:  www.openfoam.com                      |
|    \\/     M anipulation  |                                                 |
\*---------------------------------------------------------------------------*/
Build  : _14aeaf8dab-20211220 OPENFOAM=2112 version=v2112
Arch   : "LSB;label=32;scalar=64"
Exec   : simpleFoam
Date   : Jun 12 2022
Time   : 01:07:23
Host   : Songruis-MacBook-Air.local
PID    : 4157
/*---------------------------------------------------------------------------*\
| =========                 |                                                 |
| \\      /  F ield         | OpenFOAM: The Open Source CFD Toolbox           |
|  \\    /   O peration     | Version:  2112                                  |
|   \\  /    A nd           | Website:  www.openfoam.com                      |
|    \\/     M anipulation  |                                                 |
\*---------------------------------------------------------------------------*/
Build  : _14aeaf8dab-20211220 OPENFOAM=2112 version=v2112
Arch   : "LSB;label=32;scalar=64"
Exec   : simpleFoam
Date   : Jun 12 2022
Time   : 01:07:23
Host   : Songruis-MacBook-Air.local
PID    : 4153
/*---------------------------------------------------------------------------*\
| =========                 |                                                 |
| \\      /  F ield         | OpenFOAM: The Open Source CFD Toolbox           |
|  \\    /   O peration     | Version:  2112                                  |
|   \\  /    A nd           | Website:  www.openfoam.com                      |
|    \\/     M anipulation  |                                                 |
\*---------------------------------------------------------------------------*/
Build  : _14aeaf8dab-20211220 OPENFOAM=2112 version=v2112
Arch   : "LSB;label=32;scalar=64"
Exec   : simpleFoam
Date   : Jun 12 2022
Time   : 01:07:23
Host   : Songruis-MacBook-Air.local
PID    : 4159
/*---------------------------------------------------------------------------*\
| =========                 |                                                 |
| \\      /  F ield         | OpenFOAM: The Open Source CFD Toolbox           |
|  \\    /   O peration     | Version:  2112                                  |
|   \\  /    A nd           | Website:  www.openfoam.com                      |
|    \\/     M anipulation  |                                                 |
\*---------------------------------------------------------------------------*/
Build  : _14aeaf8dab-20211220 OPENFOAM=2112 version=v2112
Arch   : "LSB;label=32;scalar=64"
Exec   : simpleFoam
Date   : Jun 12 2022
Time   : 01:07:23
Host   : Songruis-MacBook-Air.local
PID    : 4155
/*---------------------------------------------------------------------------*\
| =========                 |                                                 |
| \\      /  F ield         | OpenFOAM: The Open Source CFD Toolbox           |
|  \\    /   O peration     | Version:  2112                                  |
|   \\  /    A nd           | Website:  www.openfoam.com                      |
|    \\/     M anipulation  |                                                 |
\*---------------------------------------------------------------------------*/
Build  : _14aeaf8dab-20211220 OPENFOAM=2112 version=v2112
Arch   : "LSB;label=32;scalar=64"
Exec   : simpleFoam
Date   : Jun 12 2022
Time   : 01:07:23
Host   : Songruis-MacBook-Air.local
PID    : 4156
/*---------------------------------------------------------------------------*\
| =========                 |                                                 |
| \\      /  F ield         | OpenFOAM: The Open Source CFD Toolbox           |
|  \\    /   O peration     | Version:  2112                                  |
|   \\  /    A nd           | Website:  www.openfoam.com                      |
|    \\/     M anipulation  |                                                 |
\*---------------------------------------------------------------------------*/
Build  : _14aeaf8dab-20211220 OPENFOAM=2112 version=v2112
Arch   : "LSB;label=32;scalar=64"
Exec   : simpleFoam
Date   : Jun 12 2022
Time   : 01:07:23
Host   : Songruis-MacBook-Air.local
PID    : 4158
/*---------------------------------------------------------------------------*\
| =========                 |                                                 |
| \\      /  F ield         | OpenFOAM: The Open Source CFD Toolbox           |
|  \\    /   O peration     | Version:  2112                                  |
|   \\  /    A nd           | Website:  www.openfoam.com                      |
|    \\/     M anipulation  |                                                 |
\*---------------------------------------------------------------------------*/
Build  : _14aeaf8dab-20211220 OPENFOAM=2112 version=v2112
Arch   : "LSB;label=32;scalar=64"
Exec   : simpleFoam
Date   : Jun 12 2022
Time   : 01:07:23
Host   : Songruis-MacBook-Air.local
PID    : 4160
/*---------------------------------------------------------------------------*\
| =========                 |                                                 |
| \\      /  F ield         | OpenFOAM: The Open Source CFD Toolbox           |
|  \\    /   O peration     | Version:  2112                                  |
|   \\  /    A nd           | Website:  www.openfoam.com                      |
|    \\/     M anipulation  |                                                 |
\*---------------------------------------------------------------------------*/
Build  : _14aeaf8dab-20211220 OPENFOAM=2112 version=v2112
Arch   : "LSB;label=32;scalar=64"
Exec   : simpleFoam
Date   : Jun 12 2022
Time   : 01:07:23
Host   : Songruis-MacBook-Air.local
PID    : 4154
I/O    : uncollated
Case   : /Users/songruili/Documents/Learn/10th_OpenFOAM_3_weeks/6_taylorCouetteFlow/taylor_couette_parallel
nProcs : 1
trapFpe: Floating point exception trapping - not supported on this platform
fileModificationChecking : Monitoring run-time modified files using timeStampMaster (fileModificationSkew 5, maxFileModificationPolls 20)
allowSystemOperations : Allowing user-supplied system call operations

// * * * * * * * * * * * * * * * * * * * * * * * * * * * * * * * * * * * * * //
Create time

I/O    : uncollated
Case   : /Users/songruili/Documents/Learn/10th_OpenFOAM_3_weeks/6_taylorCouetteFlow/taylor_couette_parallel
nProcs : 1
trapFpe: Floating point exception trapping - not supported on this platform
fileModificationChecking : Monitoring run-time modified files using timeStampMaster (fileModificationSkew 5, maxFileModificationPolls 20)
allowSystemOperations : Allowing user-supplied system call operations

// * * * * * * * * * * * * * * * * * * * * * * * * * * * * * * * * * * * * * //
Create time

I/O    : uncollated
Case   : /Users/songruili/Documents/Learn/10th_OpenFOAM_3_weeks/6_taylorCouetteFlow/taylor_couette_parallel
nProcs : 1
trapFpe: Floating point exception trapping - not supported on this platform
fileModificationChecking : Monitoring run-time modified files using timeStampMaster (fileModificationSkew 5, maxFileModificationPolls 20)
allowSystemOperations : Allowing user-supplied system call operations

// * * * * * * * * * * * * * * * * * * * * * * * * * * * * * * * * * * * * * //
Create time

I/O    : uncollated
Case   : /Users/songruili/Documents/Learn/10th_OpenFOAM_3_weeks/6_taylorCouetteFlow/taylor_couette_parallel
nProcs : 1
trapFpe: Floating point exception trapping - not supported on this platform
fileModificationChecking : Monitoring run-time modified files using timeStampMaster (fileModificationSkew 5, maxFileModificationPolls 20)
allowSystemOperations : Allowing user-supplied system call operations

// * * * * * * * * * * * * * * * * * * * * * * * * * * * * * * * * * * * * * //
Create time

Create mesh for time = 0
Create mesh for time = 0
I/O    : uncollated
Case   : /Users/songruili/Documents/Learn/10th_OpenFOAM_3_weeks/6_taylorCouetteFlow/taylor_couette_parallel
nProcs : 1
trapFpe: Floating point exception trapping - not supported on this platform
fileModificationChecking : Monitoring run-time modified files using timeStampMaster (fileModificationSkew 5, maxFileModificationPolls 20)
allowSystemOperations : Allowing user-supplied system call operations

// * * * * * * * * * * * * * * * * * * * * * * * * * * * * * * * * * * * * * //
Create time

Create mesh for time = 0
Create mesh for time = 0
Create mesh for time = 0
I/O    : uncollated
Case   : /Users/songruili/Documents/Learn/10th_OpenFOAM_3_weeks/6_taylorCouetteFlow/taylor_couette_parallel
nProcs : 1
I/O    : uncollated
Case   : /Users/songruili/Documents/Learn/10th_OpenFOAM_3_weeks/6_taylorCouetteFlow/taylor_couette_parallel
nProcs : 1
trapFpe: Floating point exception trapping - not supported on this platform
fileModificationChecking : Monitoring run-time modified files using timeStampMaster (fileModificationSkew 5, maxFileModificationPolls 20)
allowSystemOperations : Allowing user-supplied system call operations

// * * * * * * * * * * * * * * * * * * * * * * * * * * * * * * * * * * * * * //
trapFpe: Floating point exception trapping - not supported on this platform
fileModificationChecking : Monitoring run-time modified files using timeStampMaster (fileModificationSkew 5, maxFileModificationPolls 20)
allowSystemOperations : Allowing user-supplied system call operations

// * * * * * * * * * * * * * * * * * * * * * * * * * * * * * * * * * * * * * //
Create time

Create time

I/O    : uncollated
Create mesh for time = 0
Case   : /Users/songruili/Documents/Learn/10th_OpenFOAM_3_weeks/6_taylorCouetteFlow/taylor_couette_parallel
nProcs : 1
trapFpe: Floating point exception trapping - not supported on this platform
fileModificationChecking : Monitoring run-time modified files using timeStampMaster (fileModificationSkew 5, maxFileModificationPolls 20)
allowSystemOperations : Allowing user-supplied system call operations

// * * * * * * * * * * * * * * * * * * * * * * * * * * * * * * * * * * * * * //
Create time

Create mesh for time = 0
Create mesh for time = 0


SIMPLE: convergence criteria
    field U	 tolerance 0.0001
    field p	 tolerance 0.001

Reading field p

Reading field U



SIMPLE: convergence criteria
    field U	 tolerance 0.0001
    field p	 tolerance 0.001

Reading field p

Reading field U



SIMPLE: convergence criteria
    field U	 tolerance 0.0001
    field p	 tolerance 0.001

Reading field p

Reading field U



SIMPLE: convergence criteria
    field U	 tolerance 0.0001
    field p	 tolerance 0.001

Reading field p

Reading field U



SIMPLE: convergence criteria
    field U	 tolerance 0.0001
    field p	 tolerance 0.001

Reading field p



SIMPLE: convergence criteria
    field U	 tolerance 0.0001
    field p	 tolerance 0.001

Reading field p

Reading field U

Reading field U



SIMPLE: convergence criteria
    field U	 tolerance 0.0001
    field p	 tolerance 0.001

Reading field p

Reading field U

Reading/calculating face flux field phi

Reading/calculating face flux field phi



SIMPLE: convergence criteria
    field U	 tolerance 0.0001
    field p	 tolerance 0.001

Reading field p

Reading field U

Reading/calculating face flux field phi

Reading/calculating face flux field phi

Selecting incompressible transport model Newtonian
Selecting turbulence model type laminar
Selecting laminar stress model Stokes
Reading/calculating face flux field phi

Selecting incompressible transport model Newtonian
Selecting turbulence model type laminar
Selecting laminar stress model Stokes
Selecting incompressible transport model Newtonian
Selecting turbulence model type laminar
Selecting laminar stress model Stokes
Selecting incompressible transport model Newtonian
Selecting turbulence model type laminar
Selecting laminar stress model Stokes
Reading/calculating face flux field phi

Selecting incompressible transport model Newtonian
Reading/calculating face flux field phi

Selecting turbulence model type laminar
Selecting laminar stress model Stokes
Selecting incompressible transport model Newtonian
Selecting turbulence model type laminar
Selecting laminar stress model Stokes
Selecting incompressible transport model Newtonian
Selecting turbulence model type laminar
Selecting laminar stress model Stokes
Reading/calculating face flux field phi

Selecting incompressible transport model Newtonian
Selecting turbulence model type laminar
Selecting laminar stress model Stokes
No MRF models present

No finite volume options present

Starting time loop

Time = 1

No MRF models present

No finite volume options present

Starting time loop

Time = 1

No MRF models present

No finite volume options present

Starting time loop

Time = 1

No MRF models present

No finite volume options present

Starting time loop

Time = 1

No MRF models present

No finite volume options present

Starting time loop

Time = 1

No MRF models present

No finite volume options present

Starting time loop

Time = 1

No MRF models present

No finite volume options present

Starting time loop

Time = 1

No MRF models present

No finite volume options present

Starting time loop

Time = 1

smoothSolver:  Solving for Ux, Initial residual = 1, Final residual = 0.0667132779, No Iterations 3
smoothSolver:  Solving for Ux, Initial residual = 1, Final residual = 0.0667132779, No Iterations 3
smoothSolver:  Solving for Ux, Initial residual = 1, Final residual = 0.0667132779, No Iterations 3
smoothSolver:  Solving for Ux, Initial residual = 1, Final residual = 0.0667132779, No Iterations 3
smoothSolver:  Solving for Uy, Initial residual = 1, Final residual = 0.0667094575, No Iterations 3
smoothSolver:  Solving for Ux, Initial residual = 1, Final residual = 0.0667132779, No Iterations 3
smoothSolver:  Solving for Ux, Initial residual = 1, Final residual = 0.0667132779, No Iterations 3
smoothSolver:  Solving for Ux, Initial residual = 1, Final residual = 0.0667132779, No Iterations 3
smoothSolver:  Solving for Uy, Initial residual = 1, Final residual = 0.0667094575, No Iterations 3
smoothSolver:  Solving for Uz, Initial residual = 0.99999969, Final residual = 0.0947314461, No Iterations 2
smoothSolver:  Solving for Uy, Initial residual = 1, Final residual = 0.0667094575, No Iterations 3
smoothSolver:  Solving for Uy, Initial residual = 1, Final residual = 0.0667094575, No Iterations 3
smoothSolver:  Solving for Ux, Initial residual = 1, Final residual = 0.0667132779, No Iterations 3
smoothSolver:  Solving for Uz, Initial residual = 0.99999969, Final residual = 0.0947314461, No Iterations 2
smoothSolver:  Solving for Uz, Initial residual = 0.99999969, Final residual = 0.0947314461, No Iterations 2
smoothSolver:  Solving for Uy, Initial residual = 1, Final residual = 0.0667094575, No Iterations 3
smoothSolver:  Solving for Uz, Initial residual = 0.99999969, Final residual = 0.0947314461, No Iterations 2
smoothSolver:  Solving for Uy, Initial residual = 1, Final residual = 0.0667094575, No Iterations 3
smoothSolver:  Solving for Uy, Initial residual = 1, Final residual = 0.0667094575, No Iterations 3
smoothSolver:  Solving for Uy, Initial residual = 1, Final residual = 0.0667094575, No Iterations 3
smoothSolver:  Solving for Uz, Initial residual = 0.99999969, Final residual = 0.0947314461, No Iterations 2
smoothSolver:  Solving for Uz, Initial residual = 0.99999969, Final residual = 0.0947314461, No Iterations 2
smoothSolver:  Solving for Uz, Initial residual = 0.99999969, Final residual = 0.0947314461, No Iterations 2
smoothSolver:  Solving for Uz, Initial residual = 0.99999969, Final residual = 0.0947314461, No Iterations 2
GAMG:  Solving for p, Initial residual = 1, Final residual = 0.0406114849, No Iterations 2
time step continuity errors : sum local = 0.0542040536, global = 2.11173727e-17, cumulative = 2.11173727e-17
ExecutionTime = 2.14 s  ClockTime = 3 s

Time = 2

GAMG:  Solving for p, Initial residual = 1, Final residual = 0.0406114849, No Iterations 2
GAMG:  Solving for p, Initial residual = 1, Final residual = 0.0406114849, No Iterations 2
time step continuity errors : sum local = 0.0542040536, global = 2.11173727e-17, cumulative = 2.11173727e-17
time step continuity errors : sum local = 0.0542040536, global = 2.11173727e-17, cumulative = 2.11173727e-17
ExecutionTime = 2.2 s  ClockTime = 3 s

Time = 2

GAMG:  Solving for p, Initial residual = 1, Final residual = 0.0406114849, No Iterations 2
ExecutionTime = 2.23 s  ClockTime = 3 s

Time = 2

GAMG:  Solving for p, Initial residual = 1, Final residual = 0.0406114849, No Iterations 2
GAMG:  Solving for p, Initial residual = 1, Final residual = 0.0406114849, No Iterations 2
time step continuity errors : sum local = 0.0542040536, global = 2.11173727e-17, cumulative = 2.11173727e-17
time step continuity errors : sum local = 0.0542040536, global = 2.11173727e-17, cumulative = 2.11173727e-17
time step continuity errors : sum local = 0.0542040536, global = 2.11173727e-17, cumulative = 2.11173727e-17
ExecutionTime = 2.24 s  ClockTime = 3 s

Time = 2

ExecutionTime = 2.23 s  ClockTime = 3 s

Time = 2

GAMG:  Solving for p, Initial residual = 1, Final residual = 0.0406114849, No Iterations 2
GAMG:  Solving for p, Initial residual = 1, Final residual = 0.0406114849, No Iterations 2
ExecutionTime = 2.24 s  ClockTime = 3 s

Time = 2

time step continuity errors : sum local = 0.0542040536, global = 2.11173727e-17, cumulative = 2.11173727e-17
time step continuity errors : sum local = 0.0542040536, global = 2.11173727e-17, cumulative = 2.11173727e-17
ExecutionTime = 2.29 s  ClockTime = 3 s

Time = 2

ExecutionTime = 2.27 s  ClockTime = 3 s

Time = 2

smoothSolver:  Solving for Ux, Initial residual = 0.0825792769, Final residual = 0.00758217303, No Iterations 7
smoothSolver:  Solving for Ux, Initial residual = 0.0825792769, Final residual = 0.00758217303, No Iterations 7
smoothSolver:  Solving for Ux, Initial residual = 0.0825792769, Final residual = 0.00758217303, No Iterations 7
smoothSolver:  Solving for Ux, Initial residual = 0.0825792769, Final residual = 0.00758217303, No Iterations 7
smoothSolver:  Solving for Ux, Initial residual = 0.0825792769, Final residual = 0.00758217303, No Iterations 7
smoothSolver:  Solving for Uy, Initial residual = 0.0826115815, Final residual = 0.00759632294, No Iterations 7
smoothSolver:  Solving for Ux, Initial residual = 0.0825792769, Final residual = 0.00758217303, No Iterations 7
smoothSolver:  Solving for Uy, Initial residual = 0.0826115815, Final residual = 0.00759632294, No Iterations 7
smoothSolver:  Solving for Uz, Initial residual = 0.701009224, Final residual = 0.0355017807, No Iterations 2
smoothSolver:  Solving for Uy, Initial residual = 0.0826115815, Final residual = 0.00759632294, No Iterations 7
smoothSolver:  Solving for Ux, Initial residual = 0.0825792769, Final residual = 0.00758217303, No Iterations 7
smoothSolver:  Solving for Uz, Initial residual = 0.701009224, Final residual = 0.0355017807, No Iterations 2
smoothSolver:  Solving for Ux, Initial residual = 0.0825792769, Final residual = 0.00758217303, No Iterations 7
smoothSolver:  Solving for Uy, Initial residual = 0.0826115815, Final residual = 0.00759632294, No Iterations 7
smoothSolver:  Solving for Uy, Initial residual = 0.0826115815, Final residual = 0.00759632294, No Iterations 7
smoothSolver:  Solving for Uz, Initial residual = 0.701009224, Final residual = 0.0355017807, No Iterations 2
smoothSolver:  Solving for Uz, Initial residual = 0.701009224, Final residual = 0.0355017807, No Iterations 2
smoothSolver:  Solving for Uy, Initial residual = 0.0826115815, Final residual = 0.00759632294, No Iterations 7
smoothSolver:  Solving for Uz, Initial residual = 0.701009224, Final residual = 0.0355017807, No Iterations 2
smoothSolver:  Solving for Uy, Initial residual = 0.0826115815, Final residual = 0.00759632294, No Iterations 7
smoothSolver:  Solving for Uz, Initial residual = 0.701009224, Final residual = 0.0355017807, No Iterations 2
smoothSolver:  Solving for Uy, Initial residual = 0.0826115815, Final residual = 0.00759632294, No Iterations 7
smoothSolver:  Solving for Uz, Initial residual = 0.701009224, Final residual = 0.0355017807, No Iterations 2
smoothSolver:  Solving for Uz, Initial residual = 0.701009224, Final residual = 0.0355017807, No Iterations 2
GAMG:  Solving for p, Initial residual = 0.858386808, Final residual = 0.0295916886, No Iterations 3
time step continuity errors : sum local = 0.16177026, global = 2.26850581e-17, cumulative = 4.38024308e-17
ExecutionTime = 3.2 s  ClockTime = 4 s

Time = 3

GAMG:  Solving for p, Initial residual = 0.858386808, Final residual = 0.0295916886, No Iterations 3
time step continuity errors : sum local = 0.16177026, global = 2.26850581e-17, cumulative = 4.38024308e-17
ExecutionTime = 3.3 s  ClockTime = 4 s

Time = 3

GAMG:  Solving for p, Initial residual = 0.858386808, Final residual = 0.0295916886, No Iterations 3
GAMG:  Solving for p, Initial residual = 0.858386808, Final residual = 0.0295916886, No Iterations 3
time step continuity errors : sum local = 0.16177026, global = 2.26850581e-17, cumulative = 4.38024308e-17
GAMG:  Solving for p, Initial residual = 0.858386808, Final residual = 0.0295916886, No Iterations 3
ExecutionTime = 3.29 s  ClockTime = 4 s

Time = 3

time step continuity errors : sum local = 0.16177026, global = 2.26850581e-17, cumulative = 4.38024308e-17
GAMG:  Solving for p, Initial residual = 0.858386808, Final residual = 0.0295916886, No Iterations 3
time step continuity errors : sum local = 0.16177026, global = 2.26850581e-17, cumulative = 4.38024308e-17
ExecutionTime = 3.3 s  ClockTime = 4 s

Time = 3

time step continuity errors : sum local = 0.16177026, global = 2.26850581e-17, cumulative = 4.38024308e-17
ExecutionTime = 3.33 s  ClockTime = 4 s

Time = 3

ExecutionTime = 3.35 s  ClockTime = 4 s

Time = 3

GAMG:  Solving for p, Initial residual = 0.858386808, Final residual = 0.0295916886, No Iterations 3
time step continuity errors : sum local = 0.16177026, global = 2.26850581e-17, cumulative = 4.38024308e-17
GAMG:  Solving for p, Initial residual = 0.858386808, Final residual = 0.0295916886, No Iterations 3
ExecutionTime = 3.38 s  ClockTime = 4 s

Time = 3

time step continuity errors : sum local = 0.16177026, global = 2.26850581e-17, cumulative = 4.38024308e-17
ExecutionTime = 3.38 s  ClockTime = 4 s

Time = 3

smoothSolver:  Solving for Ux, Initial residual = 0.046402632, Final residual = 0.00387255919, No Iterations 9
smoothSolver:  Solving for Ux, Initial residual = 0.046402632, Final residual = 0.00387255919, No Iterations 9
smoothSolver:  Solving for Ux, Initial residual = 0.046402632, Final residual = 0.00387255919, No Iterations 9
smoothSolver:  Solving for Ux, Initial residual = 0.046402632, Final residual = 0.00387255919, No Iterations 9
smoothSolver:  Solving for Ux, Initial residual = 0.046402632, Final residual = 0.00387255919, No Iterations 9
smoothSolver:  Solving for Uy, Initial residual = 0.0464044696, Final residual = 0.00387972146, No Iterations 9
smoothSolver:  Solving for Ux, Initial residual = 0.046402632, Final residual = 0.00387255919, No Iterations 9
smoothSolver:  Solving for Uz, Initial residual = 0.572150302, Final residual = 0.045208598, No Iterations 2
smoothSolver:  Solving for Uy, Initial residual = 0.0464044696, Final residual = 0.00387972146, No Iterations 9
smoothSolver:  Solving for Ux, Initial residual = 0.046402632, Final residual = 0.00387255919, No Iterations 9
smoothSolver:  Solving for Uy, Initial residual = 0.0464044696, Final residual = 0.00387972146, No Iterations 9
smoothSolver:  Solving for Ux, Initial residual = 0.046402632, Final residual = 0.00387255919, No Iterations 9
smoothSolver:  Solving for Uy, Initial residual = 0.0464044696, Final residual = 0.00387972146, No Iterations 9
smoothSolver:  Solving for Uz, Initial residual = 0.572150302, Final residual = 0.045208598, No Iterations 2
smoothSolver:  Solving for Uz, Initial residual = 0.572150302, Final residual = 0.045208598, No Iterations 2
smoothSolver:  Solving for Uy, Initial residual = 0.0464044696, Final residual = 0.00387972146, No Iterations 9
smoothSolver:  Solving for Uz, Initial residual = 0.572150302, Final residual = 0.045208598, No Iterations 2
smoothSolver:  Solving for Uy, Initial residual = 0.0464044696, Final residual = 0.00387972146, No Iterations 9
smoothSolver:  Solving for Uy, Initial residual = 0.0464044696, Final residual = 0.00387972146, No Iterations 9
smoothSolver:  Solving for Uz, Initial residual = 0.572150302, Final residual = 0.045208598, No Iterations 2
smoothSolver:  Solving for Uz, Initial residual = 0.572150302, Final residual = 0.045208598, No Iterations 2
smoothSolver:  Solving for Uy, Initial residual = 0.0464044696, Final residual = 0.00387972146, No Iterations 9
smoothSolver:  Solving for Uz, Initial residual = 0.572150302, Final residual = 0.045208598, No Iterations 2
smoothSolver:  Solving for Uz, Initial residual = 0.572150302, Final residual = 0.045208598, No Iterations 2
GAMG:  Solving for p, Initial residual = 0.309447104, Final residual = 0.0101451438, No Iterations 3
time step continuity errors : sum local = 0.114653141, global = 2.35322223e-17, cumulative = 6.73346531e-17
ExecutionTime = 4.32 s  ClockTime = 5 s

Time = 4

GAMG:  Solving for p, Initial residual = 0.309447104, Final residual = 0.0101451438, No Iterations 3
time step continuity errors : sum local = 0.114653141, global = 2.35322223e-17, cumulative = 6.73346531e-17
GAMG:  Solving for p, Initial residual = 0.309447104, Final residual = 0.0101451438, No Iterations 3
ExecutionTime = 4.42 s  ClockTime = 5 s

Time = 4

GAMG:  Solving for p, Initial residual = 0.309447104, Final residual = 0.0101451438, No Iterations 3
time step continuity errors : sum local = 0.114653141, global = 2.35322223e-17, cumulative = 6.73346531e-17
time step continuity errors : sum local = 0.114653141, global = 2.35322223e-17, cumulative = 6.73346531e-17
ExecutionTime = 4.47 s  ClockTime = 6 s

Time = 4

ExecutionTime = 4.48 s  ClockTime = 6 s

Time = 4

GAMG:  Solving for p, Initial residual = 0.309447104, Final residual = 0.0101451438, No Iterations 3
GAMG:  Solving for p, Initial residual = 0.309447104, Final residual = 0.0101451438, No Iterations 3
time step continuity errors : sum local = 0.114653141, global = 2.35322223e-17, cumulative = 6.73346531e-17
time step continuity errors : sum local = 0.114653141, global = 2.35322223e-17, cumulative = 6.73346531e-17
ExecutionTime = 4.52 s  ClockTime = 6 s

Time = 4

GAMG:  Solving for p, Initial residual = 0.309447104, Final residual = 0.0101451438, No Iterations 3
ExecutionTime = 4.52 s  ClockTime = 6 s

Time = 4

time step continuity errors : sum local = 0.114653141, global = 2.35322223e-17, cumulative = 6.73346531e-17
GAMG:  Solving for p, Initial residual = 0.309447104, Final residual = 0.0101451438, No Iterations 3
ExecutionTime = 4.54 s  ClockTime = 6 s

Time = 4

time step continuity errors : sum local = 0.114653141, global = 2.35322223e-17, cumulative = 6.73346531e-17
ExecutionTime = 4.56 s  ClockTime = 6 s

Time = 4

smoothSolver:  Solving for Ux, Initial residual = 0.0355493354, Final residual = 0.00305098048, No Iterations 9
smoothSolver:  Solving for Ux, Initial residual = 0.0355493354, Final residual = 0.00305098048, No Iterations 9
smoothSolver:  Solving for Uy, Initial residual = 0.0355330162, Final residual = 0.00305908447, No Iterations 9
smoothSolver:  Solving for Ux, Initial residual = 0.0355493354, Final residual = 0.00305098048, No Iterations 9
smoothSolver:  Solving for Ux, Initial residual = 0.0355493354, Final residual = 0.00305098048, No Iterations 9
smoothSolver:  Solving for Uz, Initial residual = 0.454957716, Final residual = 0.0421278195, No Iterations 2
smoothSolver:  Solving for Ux, Initial residual = 0.0355493354, Final residual = 0.00305098048, No Iterations 9
smoothSolver:  Solving for Ux, Initial residual = 0.0355493354, Final residual = 0.00305098048, No Iterations 9
smoothSolver:  Solving for Ux, Initial residual = 0.0355493354, Final residual = 0.00305098048, No Iterations 9
smoothSolver:  Solving for Uy, Initial residual = 0.0355330162, Final residual = 0.00305908447, No Iterations 9
smoothSolver:  Solving for Ux, Initial residual = 0.0355493354, Final residual = 0.00305098048, No Iterations 9
smoothSolver:  Solving for Uy, Initial residual = 0.0355330162, Final residual = 0.00305908447, No Iterations 9
smoothSolver:  Solving for Uy, Initial residual = 0.0355330162, Final residual = 0.00305908447, No Iterations 9
smoothSolver:  Solving for Uz, Initial residual = 0.454957716, Final residual = 0.0421278195, No Iterations 2
smoothSolver:  Solving for Uz, Initial residual = 0.454957716, Final residual = 0.0421278195, No Iterations 2
smoothSolver:  Solving for Uz, Initial residual = 0.454957716, Final residual = 0.0421278195, No Iterations 2
smoothSolver:  Solving for Uy, Initial residual = 0.0355330162, Final residual = 0.00305908447, No Iterations 9
smoothSolver:  Solving for Uy, Initial residual = 0.0355330162, Final residual = 0.00305908447, No Iterations 9
smoothSolver:  Solving for Uy, Initial residual = 0.0355330162, Final residual = 0.00305908447, No Iterations 9
smoothSolver:  Solving for Uz, Initial residual = 0.454957716, Final residual = 0.0421278195, No Iterations 2
smoothSolver:  Solving for Uz, Initial residual = 0.454957716, Final residual = 0.0421278195, No Iterations 2
smoothSolver:  Solving for Uz, Initial residual = 0.454957716, Final residual = 0.0421278195, No Iterations 2
smoothSolver:  Solving for Uy, Initial residual = 0.0355330162, Final residual = 0.00305908447, No Iterations 9
smoothSolver:  Solving for Uz, Initial residual = 0.454957716, Final residual = 0.0421278195, No Iterations 2
GAMG:  Solving for p, Initial residual = 0.185859744, Final residual = 0.00671760595, No Iterations 3
time step continuity errors : sum local = 0.107574105, global = 3.16096023e-17, cumulative = 9.89442555e-17
ExecutionTime = 5.5 s  ClockTime = 7 s

Time = 5

GAMG:  Solving for p, Initial residual = 0.185859744, Final residual = 0.00671760595, No Iterations 3
time step continuity errors : sum local = 0.107574105, global = 3.16096023e-17, cumulative = 9.89442555e-17
ExecutionTime = 5.57 s  ClockTime = 7 s

Time = 5

GAMG:  Solving for p, Initial residual = 0.185859744, Final residual = 0.00671760595, No Iterations 3
GAMG:  Solving for p, Initial residual = 0.185859744, Final residual = 0.00671760595, No Iterations 3
time step continuity errors : sum local = 0.107574105, global = 3.16096023e-17, cumulative = 9.89442555e-17
GAMG:  Solving for p, Initial residual = 0.185859744, Final residual = 0.00671760595, No Iterations 3
ExecutionTime = 5.65 s  ClockTime = 7 s

Time = 5

time step continuity errors : sum local = 0.107574105, global = 3.16096023e-17, cumulative = 9.89442555e-17
time step continuity errors : sum local = 0.107574105, global = 3.16096023e-17, cumulative = 9.89442555e-17
GAMG:  Solving for p, Initial residual = 0.185859744, Final residual = 0.00671760595, No Iterations 3
ExecutionTime = 5.67 s  ClockTime = 7 s

Time = 5

GAMG:  Solving for p, Initial residual = 0.185859744, Final residual = 0.00671760595, No Iterations 3
ExecutionTime = 5.69 s  ClockTime = 7 s

Time = 5

time step continuity errors : sum local = 0.107574105, global = 3.16096023e-17, cumulative = 9.89442555e-17
time step continuity errors : sum local = 0.107574105, global = 3.16096023e-17, cumulative = 9.89442555e-17
ExecutionTime = 5.71 s  ClockTime = 7 s

Time = 5

ExecutionTime = 5.71 s  ClockTime = 7 s

Time = 5

GAMG:  Solving for p, Initial residual = 0.185859744, Final residual = 0.00671760595, No Iterations 3
time step continuity errors : sum local = 0.107574105, global = 3.16096023e-17, cumulative = 9.89442555e-17
ExecutionTime = 5.73 s  ClockTime = 7 s

Time = 5

smoothSolver:  Solving for Ux, Initial residual = 0.0300152674, Final residual = 0.00251470547, No Iterations 9
smoothSolver:  Solving for Ux, Initial residual = 0.0300152674, Final residual = 0.00251470547, No Iterations 9
smoothSolver:  Solving for Ux, Initial residual = 0.0300152674, Final residual = 0.00251470547, No Iterations 9
smoothSolver:  Solving for Uy, Initial residual = 0.0300092054, Final residual = 0.00251941692, No Iterations 9
smoothSolver:  Solving for Ux, Initial residual = 0.0300152674, Final residual = 0.00251470547, No Iterations 9
smoothSolver:  Solving for Ux, Initial residual = 0.0300152674, Final residual = 0.00251470547, No Iterations 9
smoothSolver:  Solving for Ux, Initial residual = 0.0300152674, Final residual = 0.00251470547, No Iterations 9
smoothSolver:  Solving for Uz, Initial residual = 0.350686224, Final residual = 0.0235933605, No Iterations 3
smoothSolver:  Solving for Ux, Initial residual = 0.0300152674, Final residual = 0.00251470547, No Iterations 9
smoothSolver:  Solving for Uy, Initial residual = 0.0300092054, Final residual = 0.00251941692, No Iterations 9
smoothSolver:  Solving for Uy, Initial residual = 0.0300092054, Final residual = 0.00251941692, No Iterations 9
smoothSolver:  Solving for Uy, Initial residual = 0.0300092054, Final residual = 0.00251941692, No Iterations 9
smoothSolver:  Solving for Uz, Initial residual = 0.350686224, Final residual = 0.0235933605, No Iterations 3
smoothSolver:  Solving for Uy, Initial residual = 0.0300092054, Final residual = 0.00251941692, No Iterations 9
smoothSolver:  Solving for Ux, Initial residual = 0.0300152674, Final residual = 0.00251470547, No Iterations 9
smoothSolver:  Solving for Uy, Initial residual = 0.0300092054, Final residual = 0.00251941692, No Iterations 9
smoothSolver:  Solving for Uz, Initial residual = 0.350686224, Final residual = 0.0235933605, No Iterations 3
smoothSolver:  Solving for Uy, Initial residual = 0.0300092054, Final residual = 0.00251941692, No Iterations 9
smoothSolver:  Solving for Uz, Initial residual = 0.350686224, Final residual = 0.0235933605, No Iterations 3
smoothSolver:  Solving for Uz, Initial residual = 0.350686224, Final residual = 0.0235933605, No Iterations 3
smoothSolver:  Solving for Uz, Initial residual = 0.350686224, Final residual = 0.0235933605, No Iterations 3
smoothSolver:  Solving for Uy, Initial residual = 0.0300092054, Final residual = 0.00251941692, No Iterations 9
smoothSolver:  Solving for Uz, Initial residual = 0.350686224, Final residual = 0.0235933605, No Iterations 3
GAMG:  Solving for p, Initial residual = 0.122065373, Final residual = 0.00476985679, No Iterations 3
smoothSolver:  Solving for Uz, Initial residual = 0.350686224, Final residual = 0.0235933605, No Iterations 3
time step continuity errors : sum local = 0.0953205725, global = 1.05978374e-18, cumulative = 1.00004039e-16
ExecutionTime = 6.71 s  ClockTime = 8 s

Time = 6

GAMG:  Solving for p, Initial residual = 0.122065373, Final residual = 0.00476985679, No Iterations 3
time step continuity errors : sum local = 0.0953205725, global = 1.05978374e-18, cumulative = 1.00004039e-16
ExecutionTime = 6.75 s  ClockTime = 8 s

Time = 6

GAMG:  Solving for p, Initial residual = 0.122065373, Final residual = 0.00476985679, No Iterations 3
time step continuity errors : sum local = 0.0953205725, global = 1.05978374e-18, cumulative = 1.00004039e-16
ExecutionTime = 6.83 s  ClockTime = 8 s

Time = 6

GAMG:  Solving for p, Initial residual = 0.122065373, Final residual = 0.00476985679, No Iterations 3
GAMG:  Solving for p, Initial residual = 0.122065373, Final residual = 0.00476985679, No Iterations 3
GAMG:  Solving for p, Initial residual = 0.122065373, Final residual = 0.00476985679, No Iterations 3
time step continuity errors : sum local = 0.0953205725, global = 1.05978374e-18, cumulative = 1.00004039e-16
time step continuity errors : sum local = 0.0953205725, global = 1.05978374e-18, cumulative = 1.00004039e-16
time step continuity errors : sum local = 0.0953205725, global = 1.05978374e-18, cumulative = 1.00004039e-16
ExecutionTime = 6.87 s  ClockTime = 8 s

Time = 6

GAMG:  Solving for p, Initial residual = 0.122065373, Final residual = 0.00476985679, No Iterations 3
ExecutionTime = 6.85 s  ClockTime = 8 s

Time = 6

ExecutionTime = 6.88 s  ClockTime = 8 s

Time = 6

time step continuity errors : sum local = 0.0953205725, global = 1.05978374e-18, cumulative = 1.00004039e-16
ExecutionTime = 6.86 s  ClockTime = 8 s

Time = 6

GAMG:  Solving for p, Initial residual = 0.122065373, Final residual = 0.00476985679, No Iterations 3
time step continuity errors : sum local = 0.0953205725, global = 1.05978374e-18, cumulative = 1.00004039e-16
ExecutionTime = 6.94 s  ClockTime = 8 s

Time = 6

smoothSolver:  Solving for Ux, Initial residual = 0.0248276236, Final residual = 0.00210246254, No Iterations 9
smoothSolver:  Solving for Ux, Initial residual = 0.0248276236, Final residual = 0.00210246254, No Iterations 9
smoothSolver:  Solving for Ux, Initial residual = 0.0248276236, Final residual = 0.00210246254, No Iterations 9
smoothSolver:  Solving for Ux, Initial residual = 0.0248276236, Final residual = 0.00210246254, No Iterations 9
smoothSolver:  Solving for Uy, Initial residual = 0.0248136978, Final residual = 0.00210752862, No Iterations 9
smoothSolver:  Solving for Ux, Initial residual = 0.0248276236, Final residual = 0.00210246254, No Iterations 9
smoothSolver:  Solving for Ux, Initial residual = 0.0248276236, Final residual = 0.00210246254, No Iterations 9
smoothSolver:  Solving for Uz, Initial residual = 0.285663075, Final residual = 0.0197985325, No Iterations 3
smoothSolver:  Solving for Uy, Initial residual = 0.0248136978, Final residual = 0.00210752862, No Iterations 9
smoothSolver:  Solving for Ux, Initial residual = 0.0248276236, Final residual = 0.00210246254, No Iterations 9
smoothSolver:  Solving for Uz, Initial residual = 0.285663075, Final residual = 0.0197985325, No Iterations 3
smoothSolver:  Solving for Uy, Initial residual = 0.0248136978, Final residual = 0.00210752862, No Iterations 9
smoothSolver:  Solving for Uy, Initial residual = 0.0248136978, Final residual = 0.00210752862, No Iterations 9
smoothSolver:  Solving for Ux, Initial residual = 0.0248276236, Final residual = 0.00210246254, No Iterations 9
smoothSolver:  Solving for Uz, Initial residual = 0.285663075, Final residual = 0.0197985325, No Iterations 3
smoothSolver:  Solving for Uy, Initial residual = 0.0248136978, Final residual = 0.00210752862, No Iterations 9
smoothSolver:  Solving for Uz, Initial residual = 0.285663075, Final residual = 0.0197985325, No Iterations 3
smoothSolver:  Solving for Uy, Initial residual = 0.0248136978, Final residual = 0.00210752862, No Iterations 9
smoothSolver:  Solving for Uy, Initial residual = 0.0248136978, Final residual = 0.00210752862, No Iterations 9
smoothSolver:  Solving for Uz, Initial residual = 0.285663075, Final residual = 0.0197985325, No Iterations 3
smoothSolver:  Solving for Uz, Initial residual = 0.285663075, Final residual = 0.0197985325, No Iterations 3
smoothSolver:  Solving for Uz, Initial residual = 0.285663075, Final residual = 0.0197985325, No Iterations 3
smoothSolver:  Solving for Uy, Initial residual = 0.0248136978, Final residual = 0.00210752862, No Iterations 9
GAMG:  Solving for p, Initial residual = 0.089305363, Final residual = 0.0038839165, No Iterations 3
smoothSolver:  Solving for Uz, Initial residual = 0.285663075, Final residual = 0.0197985325, No Iterations 3
time step continuity errors : sum local = 0.0902540923, global = 1.54020275e-17, cumulative = 1.15406067e-16
ExecutionTime = 7.89 s  ClockTime = 9 s

Time = 7

GAMG:  Solving for p, Initial residual = 0.089305363, Final residual = 0.0038839165, No Iterations 3
time step continuity errors : sum local = 0.0902540923, global = 1.54020275e-17, cumulative = 1.15406067e-16
ExecutionTime = 7.93 s  ClockTime = 10 s

Time = 7

GAMG:  Solving for p, Initial residual = 0.089305363, Final residual = 0.0038839165, No Iterations 3
GAMG:  Solving for p, Initial residual = 0.089305363, Final residual = 0.0038839165, No Iterations 3
time step continuity errors : sum local = 0.0902540923, global = 1.54020275e-17, cumulative = 1.15406067e-16
time step continuity errors : sum local = 0.0902540923, global = 1.54020275e-17, cumulative = 1.15406067e-16
ExecutionTime = 8.02 s  ClockTime = 10 s

Time = 7

ExecutionTime = 8.02 s  ClockTime = 10 s

Time = 7

GAMG:  Solving for p, Initial residual = 0.089305363, Final residual = 0.0038839165, No Iterations 3
GAMG:  Solving for p, Initial residual = 0.089305363, Final residual = 0.0038839165, No Iterations 3
time step continuity errors : sum local = 0.0902540923, global = 1.54020275e-17, cumulative = 1.15406067e-16
time step continuity errors : sum local = 0.0902540923, global = 1.54020275e-17, cumulative = 1.15406067e-16
ExecutionTime = 8.07 s  ClockTime = 10 s

Time = 7

ExecutionTime = 8.04 s  ClockTime = 10 s

Time = 7

GAMG:  Solving for p, Initial residual = 0.089305363, Final residual = 0.0038839165, No Iterations 3
time step continuity errors : sum local = 0.0902540923, global = 1.54020275e-17, cumulative = 1.15406067e-16
ExecutionTime = 8.09 s  ClockTime = 10 s

Time = 7

GAMG:  Solving for p, Initial residual = 0.089305363, Final residual = 0.0038839165, No Iterations 3
time step continuity errors : sum local = 0.0902540923, global = 1.54020275e-17, cumulative = 1.15406067e-16
ExecutionTime = 8.11 s  ClockTime = 10 s

Time = 7

smoothSolver:  Solving for Ux, Initial residual = 0.021201914, Final residual = 0.00178584873, No Iterations 9
smoothSolver:  Solving for Ux, Initial residual = 0.021201914, Final residual = 0.00178584873, No Iterations 9
smoothSolver:  Solving for Ux, Initial residual = 0.021201914, Final residual = 0.00178584873, No Iterations 9
smoothSolver:  Solving for Uy, Initial residual = 0.0211944777, Final residual = 0.001790726, No Iterations 9
smoothSolver:  Solving for Ux, Initial residual = 0.021201914, Final residual = 0.00178584873, No Iterations 9
smoothSolver:  Solving for Uz, Initial residual = 0.235011409, Final residual = 0.0167343681, No Iterations 3
smoothSolver:  Solving for Ux, Initial residual = 0.021201914, Final residual = 0.00178584873, No Iterations 9
smoothSolver:  Solving for Ux, Initial residual = 0.021201914, Final residual = 0.00178584873, No Iterations 9
smoothSolver:  Solving for Uy, Initial residual = 0.0211944777, Final residual = 0.001790726, No Iterations 9
smoothSolver:  Solving for Uy, Initial residual = 0.0211944777, Final residual = 0.001790726, No Iterations 9
smoothSolver:  Solving for Ux, Initial residual = 0.021201914, Final residual = 0.00178584873, No Iterations 9
smoothSolver:  Solving for Uy, Initial residual = 0.0211944777, Final residual = 0.001790726, No Iterations 9
smoothSolver:  Solving for Uz, Initial residual = 0.235011409, Final residual = 0.0167343681, No Iterations 3
smoothSolver:  Solving for Uz, Initial residual = 0.235011409, Final residual = 0.0167343681, No Iterations 3
smoothSolver:  Solving for Ux, Initial residual = 0.021201914, Final residual = 0.00178584873, No Iterations 9
smoothSolver:  Solving for Uz, Initial residual = 0.235011409, Final residual = 0.0167343681, No Iterations 3
smoothSolver:  Solving for Uy, Initial residual = 0.0211944777, Final residual = 0.001790726, No Iterations 9
smoothSolver:  Solving for Uy, Initial residual = 0.0211944777, Final residual = 0.001790726, No Iterations 9
smoothSolver:  Solving for Uy, Initial residual = 0.0211944777, Final residual = 0.001790726, No Iterations 9
smoothSolver:  Solving for Uz, Initial residual = 0.235011409, Final residual = 0.0167343681, No Iterations 3
smoothSolver:  Solving for Uz, Initial residual = 0.235011409, Final residual = 0.0167343681, No Iterations 3
smoothSolver:  Solving for Uy, Initial residual = 0.0211944777, Final residual = 0.001790726, No Iterations 9
smoothSolver:  Solving for Uz, Initial residual = 0.235011409, Final residual = 0.0167343681, No Iterations 3
GAMG:  Solving for p, Initial residual = 0.0693688448, Final residual = 0.00315610074, No Iterations 3
time step continuity errors : sum local = 0.0820279497, global = -1.67641182e-17, cumulative = 9.86419485e-17
smoothSolver:  Solving for Uz, Initial residual = 0.235011409, Final residual = 0.0167343681, No Iterations 3
ExecutionTime = 9.05 s  ClockTime = 11 s

Time = 8

GAMG:  Solving for p, Initial residual = 0.0693688448, Final residual = 0.00315610074, No Iterations 3
GAMG:  Solving for p, Initial residual = 0.0693688448, Final residual = 0.00315610074, No Iterations 3
time step continuity errors : sum local = 0.0820279497, global = -1.67641182e-17, cumulative = 9.86419485e-17
GAMG:  Solving for p, Initial residual = 0.0693688448, Final residual = 0.00315610074, No Iterations 3
time step continuity errors : sum local = 0.0820279497, global = -1.67641182e-17, cumulative = 9.86419485e-17
ExecutionTime = 9.17 s  ClockTime = 11 s

Time = 8

time step continuity errors : sum local = 0.0820279497, global = -1.67641182e-17, cumulative = 9.86419485e-17
ExecutionTime = 9.14 s  ClockTime = 11 s

Time = 8

ExecutionTime = 9.21 s  ClockTime = 11 s

Time = 8

GAMG:  Solving for p, Initial residual = 0.0693688448, Final residual = 0.00315610074, No Iterations 3
GAMG:  Solving for p, Initial residual = 0.0693688448, Final residual = 0.00315610074, No Iterations 3
time step continuity errors : sum local = 0.0820279497, global = -1.67641182e-17, cumulative = 9.86419485e-17
time step continuity errors : sum local = 0.0820279497, global = -1.67641182e-17, cumulative = 9.86419485e-17
ExecutionTime = 9.23 s  ClockTime = 11 s

Time = 8

GAMG:  Solving for p, Initial residual = 0.0693688448, Final residual = 0.00315610074, No Iterations 3
ExecutionTime = 9.26 s  ClockTime = 11 s

Time = 8

time step continuity errors : sum local = 0.0820279497, global = -1.67641182e-17, cumulative = 9.86419485e-17
GAMG:  Solving for p, Initial residual = 0.0693688448, Final residual = 0.00315610074, No Iterations 3
time step continuity errors : sum local = 0.0820279497, global = -1.67641182e-17, cumulative = 9.86419485e-17
ExecutionTime = 9.29 s  ClockTime = 11 s

Time = 8

ExecutionTime = 9.28 s  ClockTime = 11 s

Time = 8

smoothSolver:  Solving for Ux, Initial residual = 0.0184809021, Final residual = 0.00152242222, No Iterations 9
smoothSolver:  Solving for Ux, Initial residual = 0.0184809021, Final residual = 0.00152242222, No Iterations 9
smoothSolver:  Solving for Ux, Initial residual = 0.0184809021, Final residual = 0.00152242222, No Iterations 9
smoothSolver:  Solving for Ux, Initial residual = 0.0184809021, Final residual = 0.00152242222, No Iterations 9
smoothSolver:  Solving for Uy, Initial residual = 0.0184745249, Final residual = 0.00152667148, No Iterations 9
smoothSolver:  Solving for Uz, Initial residual = 0.19741862, Final residual = 0.0141330713, No Iterations 3
smoothSolver:  Solving for Uy, Initial residual = 0.0184745249, Final residual = 0.00152667148, No Iterations 9
smoothSolver:  Solving for Ux, Initial residual = 0.0184809021, Final residual = 0.00152242222, No Iterations 9
smoothSolver:  Solving for Uy, Initial residual = 0.0184745249, Final residual = 0.00152667148, No Iterations 9
smoothSolver:  Solving for Ux, Initial residual = 0.0184809021, Final residual = 0.00152242222, No Iterations 9
smoothSolver:  Solving for Uy, Initial residual = 0.0184745249, Final residual = 0.00152667148, No Iterations 9
smoothSolver:  Solving for Uz, Initial residual = 0.19741862, Final residual = 0.0141330713, No Iterations 3
smoothSolver:  Solving for Ux, Initial residual = 0.0184809021, Final residual = 0.00152242222, No Iterations 9
smoothSolver:  Solving for Uz, Initial residual = 0.19741862, Final residual = 0.0141330713, No Iterations 3
smoothSolver:  Solving for Ux, Initial residual = 0.0184809021, Final residual = 0.00152242222, No Iterations 9
smoothSolver:  Solving for Uz, Initial residual = 0.19741862, Final residual = 0.0141330713, No Iterations 3
smoothSolver:  Solving for Uy, Initial residual = 0.0184745249, Final residual = 0.00152667148, No Iterations 9
smoothSolver:  Solving for Uy, Initial residual = 0.0184745249, Final residual = 0.00152667148, No Iterations 9
smoothSolver:  Solving for Uy, Initial residual = 0.0184745249, Final residual = 0.00152667148, No Iterations 9
smoothSolver:  Solving for Uz, Initial residual = 0.19741862, Final residual = 0.0141330713, No Iterations 3
smoothSolver:  Solving for Uy, Initial residual = 0.0184745249, Final residual = 0.00152667148, No Iterations 9
smoothSolver:  Solving for Uz, Initial residual = 0.19741862, Final residual = 0.0141330713, No Iterations 3
smoothSolver:  Solving for Uz, Initial residual = 0.19741862, Final residual = 0.0141330713, No Iterations 3
GAMG:  Solving for p, Initial residual = 0.0562850687, Final residual = 0.00247867361, No Iterations 3
smoothSolver:  Solving for Uz, Initial residual = 0.19741862, Final residual = 0.0141330713, No Iterations 3
time step continuity errors : sum local = 0.0702891857, global = 3.08555791e-17, cumulative = 1.29497528e-16
ExecutionTime = 10.22 s  ClockTime = 12 s

Time = 9

GAMG:  Solving for p, Initial residual = 0.0562850687, Final residual = 0.00247867361, No Iterations 3
GAMG:  Solving for p, Initial residual = 0.0562850687, Final residual = 0.00247867361, No Iterations 3
time step continuity errors : sum local = 0.0702891857, global = 3.08555791e-17, cumulative = 1.29497528e-16
GAMG:  Solving for p, Initial residual = 0.0562850687, Final residual = 0.00247867361, No Iterations 3
time step continuity errors : sum local = 0.0702891857, global = 3.08555791e-17, cumulative = 1.29497528e-16
ExecutionTime = 10.33 s  ClockTime = 12 s

Time = 9

time step continuity errors : sum local = 0.0702891857, global = 3.08555791e-17, cumulative = 1.29497528e-16
ExecutionTime = 10.39 s  ClockTime = 12 s

Time = 9

ExecutionTime = 10.31 s  ClockTime = 12 s

Time = 9

GAMG:  Solving for p, Initial residual = 0.0562850687, Final residual = 0.00247867361, No Iterations 3
GAMG:  Solving for p, Initial residual = 0.0562850687, Final residual = 0.00247867361, No Iterations 3
time step continuity errors : sum local = 0.0702891857, global = 3.08555791e-17, cumulative = 1.29497528e-16
time step continuity errors : sum local = 0.0702891857, global = 3.08555791e-17, cumulative = 1.29497528e-16
ExecutionTime = 10.43 s  ClockTime = 13 s

Time = 9

GAMG:  Solving for p, Initial residual = 0.0562850687, Final residual = 0.00247867361, No Iterations 3
ExecutionTime = 10.43 s  ClockTime = 13 s

Time = 9

GAMG:  Solving for p, Initial residual = 0.0562850687, Final residual = 0.00247867361, No Iterations 3
time step continuity errors : sum local = 0.0702891857, global = 3.08555791e-17, cumulative = 1.29497528e-16
time step continuity errors : sum local = 0.0702891857, global = 3.08555791e-17, cumulative = 1.29497528e-16
ExecutionTime = 10.46 s  ClockTime = 13 s

Time = 9

ExecutionTime = 10.44 s  ClockTime = 13 s

Time = 9

smoothSolver:  Solving for Ux, Initial residual = 0.0162749518, Final residual = 0.00160684651, No Iterations 8
smoothSolver:  Solving for Ux, Initial residual = 0.0162749518, Final residual = 0.00160684651, No Iterations 8
smoothSolver:  Solving for Ux, Initial residual = 0.0162749518, Final residual = 0.00160684651, No Iterations 8
smoothSolver:  Solving for Ux, Initial residual = 0.0162749518, Final residual = 0.00160684651, No Iterations 8
smoothSolver:  Solving for Uy, Initial residual = 0.0162750898, Final residual = 0.00161165696, No Iterations 8
smoothSolver:  Solving for Uz, Initial residual = 0.169999123, Final residual = 0.0121626452, No Iterations 3
smoothSolver:  Solving for Uy, Initial residual = 0.0162750898, Final residual = 0.00161165696, No Iterations 8
smoothSolver:  Solving for Uy, Initial residual = 0.0162750898, Final residual = 0.00161165696, No Iterations 8
smoothSolver:  Solving for Uy, Initial residual = 0.0162750898, Final residual = 0.00161165696, No Iterations 8
smoothSolver:  Solving for Ux, Initial residual = 0.0162749518, Final residual = 0.00160684651, No Iterations 8
smoothSolver:  Solving for Ux, Initial residual = 0.0162749518, Final residual = 0.00160684651, No Iterations 8
smoothSolver:  Solving for Uz, Initial residual = 0.169999123, Final residual = 0.0121626452, No Iterations 3
smoothSolver:  Solving for Uz, Initial residual = 0.169999123, Final residual = 0.0121626452, No Iterations 3
smoothSolver:  Solving for Uz, Initial residual = 0.169999123, Final residual = 0.0121626452, No Iterations 3
smoothSolver:  Solving for Ux, Initial residual = 0.0162749518, Final residual = 0.00160684651, No Iterations 8
smoothSolver:  Solving for Ux, Initial residual = 0.0162749518, Final residual = 0.00160684651, No Iterations 8
smoothSolver:  Solving for Uy, Initial residual = 0.0162750898, Final residual = 0.00161165696, No Iterations 8
smoothSolver:  Solving for Uy, Initial residual = 0.0162750898, Final residual = 0.00161165696, No Iterations 8
smoothSolver:  Solving for Uz, Initial residual = 0.169999123, Final residual = 0.0121626452, No Iterations 3
smoothSolver:  Solving for Uz, Initial residual = 0.169999123, Final residual = 0.0121626452, No Iterations 3
smoothSolver:  Solving for Uy, Initial residual = 0.0162750898, Final residual = 0.00161165696, No Iterations 8
smoothSolver:  Solving for Uy, Initial residual = 0.0162750898, Final residual = 0.00161165696, No Iterations 8
GAMG:  Solving for p, Initial residual = 0.0462063267, Final residual = 0.0018044301, No Iterations 3
smoothSolver:  Solving for Uz, Initial residual = 0.169999123, Final residual = 0.0121626452, No Iterations 3
time step continuity errors : sum local = 0.0548717346, global = 1.82421991e-17, cumulative = 1.47739727e-16
ExecutionTime = 11.38 s  ClockTime = 14 s

Time = 10

smoothSolver:  Solving for Uz, Initial residual = 0.169999123, Final residual = 0.0121626452, No Iterations 3
GAMG:  Solving for p, Initial residual = 0.0462063267, Final residual = 0.0018044301, No Iterations 3
time step continuity errors : sum local = 0.0548717346, global = 1.82421991e-17, cumulative = 1.47739727e-16
GAMG:  Solving for p, Initial residual = 0.0462063267, Final residual = 0.0018044301, No Iterations 3
GAMG:  Solving for p, Initial residual = 0.0462063267, Final residual = 0.0018044301, No Iterations 3
ExecutionTime = 11.43 s  ClockTime = 14 s

Time = 10

time step continuity errors : sum local = 0.0548717346, global = 1.82421991e-17, cumulative = 1.47739727e-16
time step continuity errors : sum local = 0.0548717346, global = 1.82421991e-17, cumulative = 1.47739727e-16
ExecutionTime = 11.54 s  ClockTime = 14 s

Time = 10

ExecutionTime = 11.49 s  ClockTime = 14 s

Time = 10

GAMG:  Solving for p, Initial residual = 0.0462063267, Final residual = 0.0018044301, No Iterations 3
GAMG:  Solving for p, Initial residual = 0.0462063267, Final residual = 0.0018044301, No Iterations 3
time step continuity errors : sum local = 0.0548717346, global = 1.82421991e-17, cumulative = 1.47739727e-16
time step continuity errors : sum local = 0.0548717346, global = 1.82421991e-17, cumulative = 1.47739727e-16
ExecutionTime = 11.58 s  ClockTime = 14 s

Time = 10

ExecutionTime = 11.59 s  ClockTime = 14 s

Time = 10

GAMG:  Solving for p, Initial residual = 0.0462063267, Final residual = 0.0018044301, No Iterations 3
time step continuity errors : sum local = 0.0548717346, global = 1.82421991e-17, cumulative = 1.47739727e-16
ExecutionTime = 11.63 s  ClockTime = 14 s

Time = 10

GAMG:  Solving for p, Initial residual = 0.0462063267, Final residual = 0.0018044301, No Iterations 3
time step continuity errors : sum local = 0.0548717346, global = 1.82421991e-17, cumulative = 1.47739727e-16
ExecutionTime = 11.64 s  ClockTime = 14 s

Time = 10

smoothSolver:  Solving for Ux, Initial residual = 0.0143588875, Final residual = 0.00137889321, No Iterations 8
smoothSolver:  Solving for Ux, Initial residual = 0.0143588875, Final residual = 0.00137889321, No Iterations 8
smoothSolver:  Solving for Ux, Initial residual = 0.0143588875, Final residual = 0.00137889321, No Iterations 8
smoothSolver:  Solving for Ux, Initial residual = 0.0143588875, Final residual = 0.00137889321, No Iterations 8
smoothSolver:  Solving for Uy, Initial residual = 0.0143623138, Final residual = 0.00138361078, No Iterations 8
smoothSolver:  Solving for Uy, Initial residual = 0.0143623138, Final residual = 0.00138361078, No Iterations 8
smoothSolver:  Solving for Uz, Initial residual = 0.149994124, Final residual = 0.0107336893, No Iterations 3
smoothSolver:  Solving for Uz, Initial residual = 0.149994124, Final residual = 0.0107336893, No Iterations 3
smoothSolver:  Solving for Ux, Initial residual = 0.0143588875, Final residual = 0.00137889321, No Iterations 8
smoothSolver:  Solving for Uy, Initial residual = 0.0143623138, Final residual = 0.00138361078, No Iterations 8
smoothSolver:  Solving for Uy, Initial residual = 0.0143623138, Final residual = 0.00138361078, No Iterations 8
smoothSolver:  Solving for Ux, Initial residual = 0.0143588875, Final residual = 0.00137889321, No Iterations 8
smoothSolver:  Solving for Ux, Initial residual = 0.0143588875, Final residual = 0.00137889321, No Iterations 8
smoothSolver:  Solving for Uz, Initial residual = 0.149994124, Final residual = 0.0107336893, No Iterations 3
smoothSolver:  Solving for Uz, Initial residual = 0.149994124, Final residual = 0.0107336893, No Iterations 3
smoothSolver:  Solving for Ux, Initial residual = 0.0143588875, Final residual = 0.00137889321, No Iterations 8
smoothSolver:  Solving for Uy, Initial residual = 0.0143623138, Final residual = 0.00138361078, No Iterations 8
smoothSolver:  Solving for Uy, Initial residual = 0.0143623138, Final residual = 0.00138361078, No Iterations 8
smoothSolver:  Solving for Uz, Initial residual = 0.149994124, Final residual = 0.0107336893, No Iterations 3
smoothSolver:  Solving for Uy, Initial residual = 0.0143623138, Final residual = 0.00138361078, No Iterations 8
GAMG:  Solving for p, Initial residual = 0.0397706362, Final residual = 0.00394535514, No Iterations 2
smoothSolver:  Solving for Uz, Initial residual = 0.149994124, Final residual = 0.0107336893, No Iterations 3
time step continuity errors : sum local = 0.12718896, global = 2.69614844e-17, cumulative = 1.74701211e-16
ExecutionTime = 12.49 s  ClockTime = 15 s

Time = 11

GAMG:  Solving for p, Initial residual = 0.0397706362, Final residual = 0.00394535514, No Iterations 2
smoothSolver:  Solving for Uz, Initial residual = 0.149994124, Final residual = 0.0107336893, No Iterations 3
smoothSolver:  Solving for Uy, Initial residual = 0.0143623138, Final residual = 0.00138361078, No Iterations 8
time step continuity errors : sum local = 0.12718896, global = 2.69614844e-17, cumulative = 1.74701211e-16
ExecutionTime = 12.54 s  ClockTime = 15 s

Time = 11

smoothSolver:  Solving for Uz, Initial residual = 0.149994124, Final residual = 0.0107336893, No Iterations 3
GAMG:  Solving for p, Initial residual = 0.0397706362, Final residual = 0.00394535514, No Iterations 2
GAMG:  Solving for p, Initial residual = 0.0397706362, Final residual = 0.00394535514, No Iterations 2
time step continuity errors : sum local = 0.12718896, global = 2.69614844e-17, cumulative = 1.74701211e-16
time step continuity errors : sum local = 0.12718896, global = 2.69614844e-17, cumulative = 1.74701211e-16
ExecutionTime = 12.62 s  ClockTime = 15 s

Time = 11

ExecutionTime = 12.7 s  ClockTime = 15 s

Time = 11

GAMG:  Solving for p, Initial residual = 0.0397706362, Final residual = 0.00394535514, No Iterations 2
GAMG:  Solving for p, Initial residual = 0.0397706362, Final residual = 0.00394535514, No Iterations 2
time step continuity errors : sum local = 0.12718896, global = 2.69614844e-17, cumulative = 1.74701211e-16
time step continuity errors : sum local = 0.12718896, global = 2.69614844e-17, cumulative = 1.74701211e-16
ExecutionTime = 12.71 s  ClockTime = 15 s

Time = 11

ExecutionTime = 12.72 s  ClockTime = 15 s

Time = 11

GAMG:  Solving for p, Initial residual = 0.0397706362, Final residual = 0.00394535514, No Iterations 2
time step continuity errors : sum local = 0.12718896, global = 2.69614844e-17, cumulative = 1.74701211e-16
ExecutionTime = 12.75 s  ClockTime = 15 s

Time = 11

GAMG:  Solving for p, Initial residual = 0.0397706362, Final residual = 0.00394535514, No Iterations 2
time step continuity errors : sum local = 0.12718896, global = 2.69614844e-17, cumulative = 1.74701211e-16
ExecutionTime = 12.77 s  ClockTime = 15 s

Time = 11

smoothSolver:  Solving for Ux, Initial residual = 0.0133411107, Final residual = 0.00110266273, No Iterations 9
smoothSolver:  Solving for Ux, Initial residual = 0.0133411107, Final residual = 0.00110266273, No Iterations 9
smoothSolver:  Solving for Ux, Initial residual = 0.0133411107, Final residual = 0.00110266273, No Iterations 9
smoothSolver:  Solving for Ux, Initial residual = 0.0133411107, Final residual = 0.00110266273, No Iterations 9
smoothSolver:  Solving for Uy, Initial residual = 0.0133344763, Final residual = 0.00110454236, No Iterations 9
smoothSolver:  Solving for Uz, Initial residual = 0.13920391, Final residual = 0.00979402276, No Iterations 3
smoothSolver:  Solving for Uy, Initial residual = 0.0133344763, Final residual = 0.00110454236, No Iterations 9
smoothSolver:  Solving for Ux, Initial residual = 0.0133411107, Final residual = 0.00110266273, No Iterations 9
smoothSolver:  Solving for Ux, Initial residual = 0.0133411107, Final residual = 0.00110266273, No Iterations 9
smoothSolver:  Solving for Uy, Initial residual = 0.0133344763, Final residual = 0.00110454236, No Iterations 9
smoothSolver:  Solving for Ux, Initial residual = 0.0133411107, Final residual = 0.00110266273, No Iterations 9
smoothSolver:  Solving for Uz, Initial residual = 0.13920391, Final residual = 0.00979402276, No Iterations 3
smoothSolver:  Solving for Uy, Initial residual = 0.0133344763, Final residual = 0.00110454236, No Iterations 9
smoothSolver:  Solving for Uz, Initial residual = 0.13920391, Final residual = 0.00979402276, No Iterations 3
smoothSolver:  Solving for Ux, Initial residual = 0.0133411107, Final residual = 0.00110266273, No Iterations 9
smoothSolver:  Solving for Uz, Initial residual = 0.13920391, Final residual = 0.00979402276, No Iterations 3
smoothSolver:  Solving for Uy, Initial residual = 0.0133344763, Final residual = 0.00110454236, No Iterations 9
smoothSolver:  Solving for Uy, Initial residual = 0.0133344763, Final residual = 0.00110454236, No Iterations 9
smoothSolver:  Solving for Uy, Initial residual = 0.0133344763, Final residual = 0.00110454236, No Iterations 9
smoothSolver:  Solving for Uz, Initial residual = 0.13920391, Final residual = 0.00979402276, No Iterations 3
smoothSolver:  Solving for Uz, Initial residual = 0.13920391, Final residual = 0.00979402276, No Iterations 3
smoothSolver:  Solving for Uz, Initial residual = 0.13920391, Final residual = 0.00979402276, No Iterations 3
smoothSolver:  Solving for Uy, Initial residual = 0.0133344763, Final residual = 0.00110454236, No Iterations 9
GAMG:  Solving for p, Initial residual = 0.0375585324, Final residual = 0.00168575967, No Iterations 3
time step continuity errors : sum local = 0.057214656, global = 1.27601381e-17, cumulative = 1.87461349e-16
ExecutionTime = 13.68 s  ClockTime = 16 s

Time = 12

smoothSolver:  Solving for Uz, Initial residual = 0.13920391, Final residual = 0.00979402276, No Iterations 3
GAMG:  Solving for p, Initial residual = 0.0375585324, Final residual = 0.00168575967, No Iterations 3
GAMG:  Solving for p, Initial residual = 0.0375585324, Final residual = 0.00168575967, No Iterations 3
time step continuity errors : sum local = 0.057214656, global = 1.27601381e-17, cumulative = 1.87461349e-16
time step continuity errors : sum local = 0.057214656, global = 1.27601381e-17, cumulative = 1.87461349e-16
ExecutionTime = 13.86 s  ClockTime = 16 s

Time = 12

ExecutionTime = 13.69 s  ClockTime = 16 s

Time = 12

GAMG:  Solving for p, Initial residual = 0.0375585324, Final residual = 0.00168575967, No Iterations 3
time step continuity errors : sum local = 0.057214656, global = 1.27601381e-17, cumulative = 1.87461349e-16
ExecutionTime = 13.79 s  ClockTime = 16 s

Time = 12

GAMG:  Solving for p, Initial residual = 0.0375585324, Final residual = 0.00168575967, No Iterations 3
GAMG:  Solving for p, Initial residual = 0.0375585324, Final residual = 0.00168575967, No Iterations 3
time step continuity errors : sum local = 0.057214656, global = 1.27601381e-17, cumulative = 1.87461349e-16
time step continuity errors : sum local = 0.057214656, global = 1.27601381e-17, cumulative = 1.87461349e-16
ExecutionTime = 13.89 s  ClockTime = 17 s

Time = 12

GAMG:  Solving for p, Initial residual = 0.0375585324, Final residual = 0.00168575967, No Iterations 3
ExecutionTime = 13.89 s  ClockTime = 17 s

Time = 12

time step continuity errors : sum local = 0.057214656, global = 1.27601381e-17, cumulative = 1.87461349e-16
GAMG:  Solving for p, Initial residual = 0.0375585324, Final residual = 0.00168575967, No Iterations 3
ExecutionTime = 13.9 s  ClockTime = 17 s

Time = 12

time step continuity errors : sum local = 0.057214656, global = 1.27601381e-17, cumulative = 1.87461349e-16
ExecutionTime = 13.91 s  ClockTime = 17 s

Time = 12

smoothSolver:  Solving for Ux, Initial residual = 0.0120096775, Final residual = 0.00106127882, No Iterations 8
smoothSolver:  Solving for Ux, Initial residual = 0.0120096775, Final residual = 0.00106127882, No Iterations 8
smoothSolver:  Solving for Ux, Initial residual = 0.0120096775, Final residual = 0.00106127882, No Iterations 8
smoothSolver:  Solving for Uy, Initial residual = 0.0120128662, Final residual = 0.00106411769, No Iterations 8
smoothSolver:  Solving for Ux, Initial residual = 0.0120096775, Final residual = 0.00106127882, No Iterations 8
smoothSolver:  Solving for Uz, Initial residual = 0.12788412, Final residual = 0.00915716821, No Iterations 3
smoothSolver:  Solving for Uy, Initial residual = 0.0120128662, Final residual = 0.00106411769, No Iterations 8
smoothSolver:  Solving for Uy, Initial residual = 0.0120128662, Final residual = 0.00106411769, No Iterations 8
smoothSolver:  Solving for Ux, Initial residual = 0.0120096775, Final residual = 0.00106127882, No Iterations 8
smoothSolver:  Solving for Ux, Initial residual = 0.0120096775, Final residual = 0.00106127882, No Iterations 8
smoothSolver:  Solving for Ux, Initial residual = 0.0120096775, Final residual = 0.00106127882, No Iterations 8
smoothSolver:  Solving for Uz, Initial residual = 0.12788412, Final residual = 0.00915716821, No Iterations 3
smoothSolver:  Solving for Uy, Initial residual = 0.0120128662, Final residual = 0.00106411769, No Iterations 8
smoothSolver:  Solving for Uz, Initial residual = 0.12788412, Final residual = 0.00915716821, No Iterations 3
smoothSolver:  Solving for Uz, Initial residual = 0.12788412, Final residual = 0.00915716821, No Iterations 3
smoothSolver:  Solving for Ux, Initial residual = 0.0120096775, Final residual = 0.00106127882, No Iterations 8
smoothSolver:  Solving for Uy, Initial residual = 0.0120128662, Final residual = 0.00106411769, No Iterations 8
smoothSolver:  Solving for Uy, Initial residual = 0.0120128662, Final residual = 0.00106411769, No Iterations 8
smoothSolver:  Solving for Uy, Initial residual = 0.0120128662, Final residual = 0.00106411769, No Iterations 8
smoothSolver:  Solving for Uz, Initial residual = 0.12788412, Final residual = 0.00915716821, No Iterations 3
smoothSolver:  Solving for Uz, Initial residual = 0.12788412, Final residual = 0.00915716821, No Iterations 3
GAMG:  Solving for p, Initial residual = 0.0312424579, Final residual = 0.00278506516, No Iterations 2
smoothSolver:  Solving for Uz, Initial residual = 0.12788412, Final residual = 0.00915716821, No Iterations 3
smoothSolver:  Solving for Uy, Initial residual = 0.0120128662, Final residual = 0.00106411769, No Iterations 8
time step continuity errors : sum local = 0.0987402913, global = 4.94384579e-17, cumulative = 2.36899807e-16
ExecutionTime = 14.75 s  ClockTime = 18 s

Time = 13

GAMG:  Solving for p, Initial residual = 0.0312424579, Final residual = 0.00278506516, No Iterations 2
smoothSolver:  Solving for Uz, Initial residual = 0.12788412, Final residual = 0.00915716821, No Iterations 3
GAMG:  Solving for p, Initial residual = 0.0312424579, Final residual = 0.00278506516, No Iterations 2
time step continuity errors : sum local = 0.0987402913, global = 4.94384579e-17, cumulative = 2.36899807e-16
time step continuity errors : sum local = 0.0987402913, global = 4.94384579e-17, cumulative = 2.36899807e-16
ExecutionTime = 14.92 s  ClockTime = 18 s

Time = 13

ExecutionTime = 14.76 s  ClockTime = 18 s

Time = 13

GAMG:  Solving for p, Initial residual = 0.0312424579, Final residual = 0.00278506516, No Iterations 2
time step continuity errors : sum local = 0.0987402913, global = 4.94384579e-17, cumulative = 2.36899807e-16
ExecutionTime = 14.87 s  ClockTime = 18 s

Time = 13

GAMG:  Solving for p, Initial residual = 0.0312424579, Final residual = 0.00278506516, No Iterations 2
GAMG:  Solving for p, Initial residual = 0.0312424579, Final residual = 0.00278506516, No Iterations 2
time step continuity errors : sum local = 0.0987402913, global = 4.94384579e-17, cumulative = 2.36899807e-16
time step continuity errors : sum local = 0.0987402913, global = 4.94384579e-17, cumulative = 2.36899807e-16
ExecutionTime = 14.97 s  ClockTime = 18 s

Time = 13

ExecutionTime = 14.98 s  ClockTime = 18 s

Time = 13

GAMG:  Solving for p, Initial residual = 0.0312424579, Final residual = 0.00278506516, No Iterations 2
time step continuity errors : sum local = 0.0987402913, global = 4.94384579e-17, cumulative = 2.36899807e-16
ExecutionTime = 15.02 s  ClockTime = 18 s

Time = 13

GAMG:  Solving for p, Initial residual = 0.0312424579, Final residual = 0.00278506516, No Iterations 2
time step continuity errors : sum local = 0.0987402913, global = 4.94384579e-17, cumulative = 2.36899807e-16
ExecutionTime = 15.04 s  ClockTime = 18 s

Time = 13

smoothSolver:  Solving for Ux, Initial residual = 0.0109552808, Final residual = 0.00102739646, No Iterations 8
smoothSolver:  Solving for Uy, Initial residual = 0.0109554182, Final residual = 0.00102954228, No Iterations 8
smoothSolver:  Solving for Ux, Initial residual = 0.0109552808, Final residual = 0.00102739646, No Iterations 8
smoothSolver:  Solving for Ux, Initial residual = 0.0109552808, Final residual = 0.00102739646, No Iterations 8
smoothSolver:  Solving for Uz, Initial residual = 0.117019881, Final residual = 0.00867138827, No Iterations 3
smoothSolver:  Solving for Ux, Initial residual = 0.0109552808, Final residual = 0.00102739646, No Iterations 8
smoothSolver:  Solving for Uy, Initial residual = 0.0109554182, Final residual = 0.00102954228, No Iterations 8
smoothSolver:  Solving for Ux, Initial residual = 0.0109552808, Final residual = 0.00102739646, No Iterations 8
smoothSolver:  Solving for Uy, Initial residual = 0.0109554182, Final residual = 0.00102954228, No Iterations 8
smoothSolver:  Solving for Uz, Initial residual = 0.117019881, Final residual = 0.00867138827, No Iterations 3
smoothSolver:  Solving for Uz, Initial residual = 0.117019881, Final residual = 0.00867138827, No Iterations 3
smoothSolver:  Solving for Uy, Initial residual = 0.0109554182, Final residual = 0.00102954228, No Iterations 8
smoothSolver:  Solving for Ux, Initial residual = 0.0109552808, Final residual = 0.00102739646, No Iterations 8
smoothSolver:  Solving for Ux, Initial residual = 0.0109552808, Final residual = 0.00102739646, No Iterations 8
smoothSolver:  Solving for Ux, Initial residual = 0.0109552808, Final residual = 0.00102739646, No Iterations 8
smoothSolver:  Solving for Uy, Initial residual = 0.0109554182, Final residual = 0.00102954228, No Iterations 8
smoothSolver:  Solving for Uz, Initial residual = 0.117019881, Final residual = 0.00867138827, No Iterations 3
smoothSolver:  Solving for Uz, Initial residual = 0.117019881, Final residual = 0.00867138827, No Iterations 3
smoothSolver:  Solving for Uy, Initial residual = 0.0109554182, Final residual = 0.00102954228, No Iterations 8
smoothSolver:  Solving for Uy, Initial residual = 0.0109554182, Final residual = 0.00102954228, No Iterations 8
GAMG:  Solving for p, Initial residual = 0.0292061511, Final residual = 0.00112807577, No Iterations 3
smoothSolver:  Solving for Uz, Initial residual = 0.117019881, Final residual = 0.00867138827, No Iterations 3
time step continuity errors : sum local = 0.0416101594, global = 2.20394552e-17, cumulative = 2.58939262e-16
smoothSolver:  Solving for Uy, Initial residual = 0.0109554182, Final residual = 0.00102954228, No Iterations 8
ExecutionTime = 15.84 s  ClockTime = 19 s

Time = 14

smoothSolver:  Solving for Uz, Initial residual = 0.117019881, Final residual = 0.00867138827, No Iterations 3
smoothSolver:  Solving for Uz, Initial residual = 0.117019881, Final residual = 0.00867138827, No Iterations 3
GAMG:  Solving for p, Initial residual = 0.0292061511, Final residual = 0.00112807577, No Iterations 3
GAMG:  Solving for p, Initial residual = 0.0292061511, Final residual = 0.00112807577, No Iterations 3
time step continuity errors : sum local = 0.0416101594, global = 2.20394552e-17, cumulative = 2.58939262e-16
ExecutionTime = 15.86 s  ClockTime = 19 s

Time = 14

time step continuity errors : sum local = 0.0416101594, global = 2.20394552e-17, cumulative = 2.58939262e-16
ExecutionTime = 16.03 s  ClockTime = 19 s

Time = 14

GAMG:  Solving for p, Initial residual = 0.0292061511, Final residual = 0.00112807577, No Iterations 3
time step continuity errors : sum local = 0.0416101594, global = 2.20394552e-17, cumulative = 2.58939262e-16
ExecutionTime = 15.97 s  ClockTime = 19 s

Time = 14

GAMG:  Solving for p, Initial residual = 0.0292061511, Final residual = 0.00112807577, No Iterations 3
time step continuity errors : sum local = 0.0416101594, global = 2.20394552e-17, cumulative = 2.58939262e-16
ExecutionTime = 16.09 s  ClockTime = 19 s

Time = 14

GAMG:  Solving for p, Initial residual = 0.0292061511, Final residual = 0.00112807577, No Iterations 3
GAMG:  Solving for p, Initial residual = 0.0292061511, Final residual = 0.00112807577, No Iterations 3
time step continuity errors : sum local = 0.0416101594, global = 2.20394552e-17, cumulative = 2.58939262e-16
GAMG:  Solving for p, Initial residual = 0.0292061511, Final residual = 0.00112807577, No Iterations 3
time step continuity errors : sum local = 0.0416101594, global = 2.20394552e-17, cumulative = 2.58939262e-16
ExecutionTime = 16.14 s  ClockTime = 19 s

Time = 14

time step continuity errors : sum local = 0.0416101594, global = 2.20394552e-17, cumulative = 2.58939262e-16
ExecutionTime = 16.12 s  ClockTime = 19 s

Time = 14

ExecutionTime = 16.13 s  ClockTime = 19 s

Time = 14

smoothSolver:  Solving for Ux, Initial residual = 0.00997407315, Final residual = 0.000809704763, No Iterations 8
smoothSolver:  Solving for Uy, Initial residual = 0.0099839644, Final residual = 0.000812846633, No Iterations 8
smoothSolver:  Solving for Ux, Initial residual = 0.00997407315, Final residual = 0.000809704763, No Iterations 8
smoothSolver:  Solving for Ux, Initial residual = 0.00997407315, Final residual = 0.000809704763, No Iterations 8
smoothSolver:  Solving for Uz, Initial residual = 0.111842361, Final residual = 0.008558887, No Iterations 3
smoothSolver:  Solving for Ux, Initial residual = 0.00997407315, Final residual = 0.000809704763, No Iterations 8
smoothSolver:  Solving for Uy, Initial residual = 0.0099839644, Final residual = 0.000812846633, No Iterations 8
smoothSolver:  Solving for Ux, Initial residual = 0.00997407315, Final residual = 0.000809704763, No Iterations 8
smoothSolver:  Solving for Uy, Initial residual = 0.0099839644, Final residual = 0.000812846633, No Iterations 8
smoothSolver:  Solving for Ux, Initial residual = 0.00997407315, Final residual = 0.000809704763, No Iterations 8
smoothSolver:  Solving for Uz, Initial residual = 0.111842361, Final residual = 0.008558887, No Iterations 3
smoothSolver:  Solving for Ux, Initial residual = 0.00997407315, Final residual = 0.000809704763, No Iterations 8
smoothSolver:  Solving for Uy, Initial residual = 0.0099839644, Final residual = 0.000812846633, No Iterations 8
smoothSolver:  Solving for Uy, Initial residual = 0.0099839644, Final residual = 0.000812846633, No Iterations 8
GAMG:  Solving for p, Initial residual = 0.0254635529, Final residual = 0.00199818442, No Iterations 2
smoothSolver:  Solving for Ux, Initial residual = 0.00997407315, Final residual = 0.000809704763, No Iterations 8
smoothSolver:  Solving for Uz, Initial residual = 0.111842361, Final residual = 0.008558887, No Iterations 3
time step continuity errors : sum local = 0.076360923, global = 3.69590334e-17, cumulative = 2.95898296e-16
smoothSolver:  Solving for Uz, Initial residual = 0.111842361, Final residual = 0.008558887, No Iterations 3
smoothSolver:  Solving for Uy, Initial residual = 0.0099839644, Final residual = 0.000812846633, No Iterations 8
smoothSolver:  Solving for Uz, Initial residual = 0.111842361, Final residual = 0.008558887, No Iterations 3
ExecutionTime = 16.87 s  ClockTime = 20 s

Time = 15

smoothSolver:  Solving for Uy, Initial residual = 0.0099839644, Final residual = 0.000812846633, No Iterations 8
smoothSolver:  Solving for Uz, Initial residual = 0.111842361, Final residual = 0.008558887, No Iterations 3
smoothSolver:  Solving for Uz, Initial residual = 0.111842361, Final residual = 0.008558887, No Iterations 3
smoothSolver:  Solving for Uy, Initial residual = 0.0099839644, Final residual = 0.000812846633, No Iterations 8
GAMG:  Solving for p, Initial residual = 0.0254635529, Final residual = 0.00199818442, No Iterations 2
time step continuity errors : sum local = 0.076360923, global = 3.69590334e-17, cumulative = 2.95898296e-16
smoothSolver:  Solving for Uz, Initial residual = 0.111842361, Final residual = 0.008558887, No Iterations 3
ExecutionTime = 17.11 s  ClockTime = 20 s

Time = 15

GAMG:  Solving for p, Initial residual = 0.0254635529, Final residual = 0.00199818442, No Iterations 2
GAMG:  Solving for p, Initial residual = 0.0254635529, Final residual = 0.00199818442, No Iterations 2
time step continuity errors : sum local = 0.076360923, global = 3.69590334e-17, cumulative = 2.95898296e-16
time step continuity errors : sum local = 0.076360923, global = 3.69590334e-17, cumulative = 2.95898296e-16
GAMG:  Solving for p, Initial residual = 0.0254635529, Final residual = 0.00199818442, No Iterations 2
ExecutionTime = 17.15 s  ClockTime = 21 s

Time = 15

ExecutionTime = 16.98 s  ClockTime = 21 s

Time = 15

time step continuity errors : sum local = 0.076360923, global = 3.69590334e-17, cumulative = 2.95898296e-16
GAMG:  Solving for p, Initial residual = 0.0254635529, Final residual = 0.00199818442, No Iterations 2
time step continuity errors : sum local = 0.076360923, global = 3.69590334e-17, cumulative = 2.95898296e-16
ExecutionTime = 17.09 s  ClockTime = 21 s

Time = 15

ExecutionTime = 17.2 s  ClockTime = 21 s

Time = 15

GAMG:  Solving for p, Initial residual = 0.0254635529, Final residual = 0.00199818442, No Iterations 2
time step continuity errors : sum local = 0.076360923, global = 3.69590334e-17, cumulative = 2.95898296e-16
ExecutionTime = 17.19 s  ClockTime = 21 s

Time = 15

GAMG:  Solving for p, Initial residual = 0.0254635529, Final residual = 0.00199818442, No Iterations 2
[...]
GAMG:  Solving for p, Initial residual = 2.81228447e-05, Final residual = 1.29692301e-06, No Iterations 2
ExecutionTime = 763.91 s  ClockTime = 891 s

Time = 624

time step continuity errors : sum local = 0.000102109978, global = 3.74200987e-17, cumulative = 1.44972879e-14
ExecutionTime = 765.14 s  ClockTime = 891 s

Time = 623

GAMG:  Solving for p, Initial residual = 2.89222449e-05, Final residual = 1.33426458e-06, No Iterations 2
time step continuity errors : sum local = 0.000105042523, global = 3.59039852e-17, cumulative = 1.4365064e-14
ExecutionTime = 763.92 s  ClockTime = 891 s

Time = 619

smoothSolver:  Solving for Ux, Initial residual = 1.25003108e-05, Final residual = 1.17368921e-06, No Iterations 8
smoothSolver:  Solving for Ux, Initial residual = 1.23392882e-05, Final residual = 1.15823352e-06, No Iterations 8
smoothSolver:  Solving for Uy, Initial residual = 1.25062294e-05, Final residual = 1.178027e-06, No Iterations 8
smoothSolver:  Solving for Ux, Initial residual = 1.27639425e-05, Final residual = 1.19860874e-06, No Iterations 8
smoothSolver:  Solving for Uz, Initial residual = 0.000102135392, Final residual = 7.29184114e-06, No Iterations 5
smoothSolver:  Solving for Uy, Initial residual = 1.23404911e-05, Final residual = 1.16188522e-06, No Iterations 8
smoothSolver:  Solving for Uy, Initial residual = 1.27703091e-05, Final residual = 1.20301619e-06, No Iterations 8
smoothSolver:  Solving for Uz, Initial residual = 0.000100683506, Final residual = 7.37945343e-06, No Iterations 5
smoothSolver:  Solving for Ux, Initial residual = 1.25003108e-05, Final residual = 1.17368921e-06, No Iterations 8
smoothSolver:  Solving for Ux, Initial residual = 1.25936908e-05, Final residual = 1.18276161e-06, No Iterations 8
smoothSolver:  Solving for Uz, Initial residual = 0.000104177459, Final residual = 1.04026231e-05, No Iterations 4
GAMG:  Solving for p, Initial residual = 2.77245456e-05, Final residual = 1.27770327e-06, No Iterations 2
time step continuity errors : sum local = 0.000100600608, global = 2.90853513e-17, cumulative = 1.45588398e-14
smoothSolver:  Solving for Uy, Initial residual = 1.25062294e-05, Final residual = 1.178027e-06, No Iterations 8
smoothSolver:  Solving for Uy, Initial residual = 1.2599959e-05, Final residual = 1.18711782e-06, No Iterations 8
ExecutionTime = 765.95 s  ClockTime = 892 s

Time = 625

smoothSolver:  Solving for Ux, Initial residual = 1.29529317e-05, Final residual = 1.21680551e-06, No Iterations 8
smoothSolver:  Solving for Uz, Initial residual = 0.000102135392, Final residual = 7.29184114e-06, No Iterations 5
GAMG:  Solving for p, Initial residual = 2.73351769e-05, Final residual = 1.25713206e-06, No Iterations 2
smoothSolver:  Solving for Uz, Initial residual = 0.000102858258, Final residual = 7.42217516e-06, No Iterations 5
time step continuity errors : sum local = 9.88846799e-05, global = 7.21197398e-17, cumulative = 1.46647215e-14
ExecutionTime = 766.05 s  ClockTime = 892 s

Time = 627

smoothSolver:  Solving for Uy, Initial residual = 1.29595469e-05, Final residual = 1.22122199e-06, No Iterations 8
GAMG:  Solving for p, Initial residual = 2.78490059e-05, Final residual = 1.29746586e-06, No Iterations 2
time step continuity errors : sum local = 0.000102153347, global = 1.624293e-17, cumulative = 1.44598678e-14
ExecutionTime = 764.57 s  ClockTime = 892 s

Time = 622

smoothSolver:  Solving for Uz, Initial residual = 0.000105792684, Final residual = 7.63642579e-06, No Iterations 5
GAMG:  Solving for p, Initial residual = 2.79644614e-05, Final residual = 1.28868834e-06, No Iterations 2
GAMG:  Solving for p, Initial residual = 2.77245456e-05, Final residual = 1.27770327e-06, No Iterations 2
time step continuity errors : sum local = 0.000101463181, global = 3.24665516e-17, cumulative = 1.45297544e-14
time step continuity errors : sum local = 0.000100600608, global = 2.90853513e-17, cumulative = 1.45588398e-14
ExecutionTime = 766.18 s  ClockTime = 892 s

Time = 624

ExecutionTime = 765 s  ClockTime = 892 s

Time = 625

GAMG:  Solving for p, Initial residual = 2.87597013e-05, Final residual = 1.32576972e-06, No Iterations 2
time step continuity errors : sum local = 0.000104375398, global = 3.46467304e-17, cumulative = 1.43997107e-14
ExecutionTime = 765.01 s  ClockTime = 892 s

Time = 620

smoothSolver:  Solving for Ux, Initial residual = 1.24096733e-05, Final residual = 1.16510114e-06, No Iterations 8
smoothSolver:  Solving for Ux, Initial residual = 1.22514118e-05, Final residual = 1.15094602e-06, No Iterations 8
smoothSolver:  Solving for Uy, Initial residual = 1.24155167e-05, Final residual = 1.16941396e-06, No Iterations 8
smoothSolver:  Solving for Ux, Initial residual = 1.26855893e-05, Final residual = 1.19165716e-06, No Iterations 8
smoothSolver:  Solving for Uz, Initial residual = 0.000101283296, Final residual = 1.01101288e-05, No Iterations 4
smoothSolver:  Solving for Uy, Initial residual = 1.22504357e-05, Final residual = 1.15430392e-06, No Iterations 8
smoothSolver:  Solving for Uy, Initial residual = 1.26923451e-05, Final residual = 1.19600653e-06, No Iterations 8
smoothSolver:  Solving for Uz, Initial residual = 9.99532834e-05, Final residual = 7.21196592e-06, No Iterations 5
smoothSolver:  Solving for Ux, Initial residual = 1.24096733e-05, Final residual = 1.16510114e-06, No Iterations 8
smoothSolver:  Solving for Ux, Initial residual = 1.25003108e-05, Final residual = 1.17368921e-06, No Iterations 8
smoothSolver:  Solving for Uz, Initial residual = 0.000103411663, Final residual = 7.59011158e-06, No Iterations 5
GAMG:  Solving for p, Initial residual = 2.70788946e-05, Final residual = 1.23294923e-06, No Iterations 2
time step continuity errors : sum local = 9.68922419e-05, global = 3.37620046e-17, cumulative = 1.45926018e-14
ExecutionTime = 767 s  ClockTime = 893 s

Time = 626

smoothSolver:  Solving for Uy, Initial residual = 1.24155167e-05, Final residual = 1.16941396e-06, No Iterations 8
smoothSolver:  Solving for Uy, Initial residual = 1.25062294e-05, Final residual = 1.178027e-06, No Iterations 8
smoothSolver:  Solving for Ux, Initial residual = 1.28570247e-05, Final residual = 1.20745821e-06, No Iterations 8
smoothSolver:  Solving for Uz, Initial residual = 0.000101283296, Final residual = 1.01101288e-05, No Iterations 4
GAMG:  Solving for p, Initial residual = 2.71922536e-05, Final residual = 1.25330464e-06, No Iterations 2
time step continuity errors : sum local = 9.86043155e-05, global = 1.36931611e-17, cumulative = 1.46784147e-14
smoothSolver:  Solving for Uz, Initial residual = 0.000102135392, Final residual = 7.29184114e-06, No Iterations 5
ExecutionTime = 767.1 s  ClockTime = 893 s


SIMPLE solution converged in 627 iterations

GAMG:  Solving for p, Initial residual = 2.81228447e-05, Final residual = 1.29692301e-06, No Iterations 2
smoothSolver:  Solving for Uy, Initial residual = 1.2863384e-05, Final residual = 1.21187383e-06, No Iterations 8
time step continuity errors : sum local = 0.000102109978, global = 3.74200987e-17, cumulative = 1.44972879e-14
ExecutionTime = 765.63 s  ClockTime = 893 s

Time = 623

smoothSolver:  Solving for Uz, Initial residual = 0.000105050529, Final residual = 7.50264238e-06, No Iterations 5
GAMG:  Solving for p, Initial residual = 2.70788946e-05, Final residual = 1.23294923e-06, No Iterations 2
time step continuity errors : sum local = 9.68922419e-05, global = 3.37620046e-17, cumulative = 1.45926018e-14
ExecutionTime = 766.03 s  ClockTime = 893 s

Time = 626

GAMG:  Solving for p, Initial residual = 2.77245456e-05, Final residual = 1.27770327e-06, No Iterations 2
time step continuity errors : sum local = 0.000100600608, global = 2.90853513e-17, cumulative = 1.45588398e-14
ExecutionTime = 767.24 s  ClockTime = 893 s

Time = 625

GAMG:  Solving for p, Initial residual = 2.85131663e-05, Final residual = 1.31444726e-06, No Iterations 2
time step continuity errors : sum local = 0.000103486423, global = 4.39141171e-17, cumulative = 1.44436249e-14
smoothSolver:  Solving for Ux, Initial residual = 1.23392882e-05, Final residual = 1.15823352e-06, No Iterations 8
ExecutionTime = 766.04 s  ClockTime = 893 s

Time = 621

smoothSolver:  Solving for Uy, Initial residual = 1.23404911e-05, Final residual = 1.16188522e-06, No Iterations 8
smoothSolver:  Solving for Ux, Initial residual = 1.25936908e-05, Final residual = 1.18276161e-06, No Iterations 8
smoothSolver:  Solving for Uz, Initial residual = 0.000100683506, Final residual = 7.37945343e-06, No Iterations 5
smoothSolver:  Solving for Uy, Initial residual = 1.2599959e-05, Final residual = 1.18711782e-06, No Iterations 8
smoothSolver:  Solving for Ux, Initial residual = 1.23392882e-05, Final residual = 1.15823352e-06, No Iterations 8
smoothSolver:  Solving for Ux, Initial residual = 1.24096733e-05, Final residual = 1.16510114e-06, No Iterations 8
End

smoothSolver:  Solving for Uz, Initial residual = 0.000102858258, Final residual = 7.42217516e-06, No Iterations 5
GAMG:  Solving for p, Initial residual = 2.73351769e-05, Final residual = 1.25713206e-06, No Iterations 2
smoothSolver:  Solving for Uy, Initial residual = 1.23404911e-05, Final residual = 1.16188522e-06, No Iterations 8
time step continuity errors : sum local = 9.88846799e-05, global = 7.21197398e-17, cumulative = 1.46647215e-14
ExecutionTime = 768 s  ClockTime = 894 s

Time = 627

smoothSolver:  Solving for Uy, Initial residual = 1.24155167e-05, Final residual = 1.16941396e-06, No Iterations 8
smoothSolver:  Solving for Ux, Initial residual = 1.27639425e-05, Final residual = 1.19860874e-06, No Iterations 8
smoothSolver:  Solving for Uz, Initial residual = 0.000100683506, Final residual = 7.37945343e-06, No Iterations 5
smoothSolver:  Solving for Uz, Initial residual = 0.000101283296, Final residual = 1.01101288e-05, No Iterations 4
GAMG:  Solving for p, Initial residual = 2.79644614e-05, Final residual = 1.28868834e-06, No Iterations 2
time step continuity errors : sum local = 0.000101463181, global = 3.24665516e-17, cumulative = 1.45297544e-14
smoothSolver:  Solving for Uy, Initial residual = 1.27703091e-05, Final residual = 1.20301619e-06, No Iterations 8
ExecutionTime = 766.6 s  ClockTime = 894 s

Time = 624

smoothSolver:  Solving for Uz, Initial residual = 0.000104177459, Final residual = 1.04026231e-05, No Iterations 4
GAMG:  Solving for p, Initial residual = 2.73351769e-05, Final residual = 1.25713206e-06, No Iterations 2
time step continuity errors : sum local = 9.88846799e-05, global = 7.21197398e-17, cumulative = 1.46647215e-14
GAMG:  Solving for p, Initial residual = 2.70788946e-05, Final residual = 1.23294923e-06, No Iterations 2
ExecutionTime = 767 s  ClockTime = 894 s

Time = 627

time step continuity errors : sum local = 9.68922419e-05, global = 3.37620046e-17, cumulative = 1.45926018e-14
ExecutionTime = 768.21 s  ClockTime = 894 s

Time = 626

smoothSolver:  Solving for Ux, Initial residual = 1.22514118e-05, Final residual = 1.15094602e-06, No Iterations 8
GAMG:  Solving for p, Initial residual = 2.78490059e-05, Final residual = 1.29746586e-06, No Iterations 2
time step continuity errors : sum local = 0.000102153347, global = 1.624293e-17, cumulative = 1.44598678e-14
ExecutionTime = 767.02 s  ClockTime = 894 s

Time = 622

smoothSolver:  Solving for Uy, Initial residual = 1.22504357e-05, Final residual = 1.15430392e-06, No Iterations 8
smoothSolver:  Solving for Ux, Initial residual = 1.25003108e-05, Final residual = 1.17368921e-06, No Iterations 8
smoothSolver:  Solving for Uz, Initial residual = 9.99532834e-05, Final residual = 7.21196592e-06, No Iterations 5
smoothSolver:  Solving for Uy, Initial residual = 1.25062294e-05, Final residual = 1.178027e-06, No Iterations 8
smoothSolver:  Solving for Ux, Initial residual = 1.22514118e-05, Final residual = 1.15094602e-06, No Iterations 8
smoothSolver:  Solving for Ux, Initial residual = 1.23392882e-05, Final residual = 1.15823352e-06, No Iterations 8
smoothSolver:  Solving for Uz, Initial residual = 0.000102135392, Final residual = 7.29184114e-06, No Iterations 5
GAMG:  Solving for p, Initial residual = 2.71922536e-05, Final residual = 1.25330464e-06, No Iterations 2
smoothSolver:  Solving for Uy, Initial residual = 1.22504357e-05, Final residual = 1.15430392e-06, No Iterations 8
time step continuity errors : sum local = 9.86043155e-05, global = 1.36931611e-17, cumulative = 1.46784147e-14
ExecutionTime = 768.94 s  ClockTime = 895 s


SIMPLE solution converged in 627 iterations

smoothSolver:  Solving for Uy, Initial residual = 1.23404911e-05, Final residual = 1.16188522e-06, No Iterations 8
smoothSolver:  Solving for Ux, Initial residual = 1.26855893e-05, Final residual = 1.19165716e-06, No Iterations 8
smoothSolver:  Solving for Uz, Initial residual = 9.99532834e-05, Final residual = 7.21196592e-06, No Iterations 5
smoothSolver:  Solving for Uz, Initial residual = 0.000100683506, Final residual = 7.37945343e-06, No Iterations 5
GAMG:  Solving for p, Initial residual = 2.77245456e-05, Final residual = 1.27770327e-06, No Iterations 2
time step continuity errors : sum local = 0.000100600608, global = 2.90853513e-17, cumulative = 1.45588398e-14
ExecutionTime = 767.54 s  ClockTime = 895 s

Time = 625

smoothSolver:  Solving for Uy, Initial residual = 1.26923451e-05, Final residual = 1.19600653e-06, No Iterations 8
smoothSolver:  Solving for Uz, Initial residual = 0.000103411663, Final residual = 7.59011158e-06, No Iterations 5
GAMG:  Solving for p, Initial residual = 2.71922536e-05, Final residual = 1.25330464e-06, No Iterations 2
time step continuity errors : sum local = 9.86043155e-05, global = 1.36931611e-17, cumulative = 1.46784147e-14
ExecutionTime = 767.93 s  ClockTime = 895 s


SIMPLE solution converged in 627 iterations

GAMG:  Solving for p, Initial residual = 2.73351769e-05, Final residual = 1.25713206e-06, No Iterations 2
time step continuity errors : sum local = 9.88846799e-05, global = 7.21197398e-17, cumulative = 1.46647215e-14
ExecutionTime = 769.14 s  ClockTime = 895 s

Time = 627

GAMG:  Solving for p, Initial residual = 2.81228447e-05, Final residual = 1.29692301e-06, No Iterations 2
time step continuity errors : sum local = 0.000102109978, global = 3.74200987e-17, cumulative = 1.44972879e-14
ExecutionTime = 767.93 s  ClockTime = 895 s

Time = 623

smoothSolver:  Solving for Ux, Initial residual = 1.24096733e-05, Final residual = 1.16510114e-06, No Iterations 8
smoothSolver:  Solving for Uy, Initial residual = 1.24155167e-05, Final residual = 1.16941396e-06, No Iterations 8
smoothSolver:  Solving for Uz, Initial residual = 0.000101283296, Final residual = 1.01101288e-05, No Iterations 4
smoothSolver:  Solving for Ux, Initial residual = 1.22514118e-05, Final residual = 1.15094602e-06, No Iterations 8
smoothSolver:  Solving for Uy, Initial residual = 1.22504357e-05, Final residual = 1.15430392e-06, No Iterations 8
smoothSolver:  Solving for Ux, Initial residual = 1.25936908e-05, Final residual = 1.18276161e-06, No Iterations 8
GAMG:  Solving for p, Initial residual = 2.70788946e-05, Final residual = 1.23294923e-06, No Iterations 2
smoothSolver:  Solving for Uz, Initial residual = 9.99532834e-05, Final residual = 7.21196592e-06, No Iterations 5
time step continuity errors : sum local = 9.68922419e-05, global = 3.37620046e-17, cumulative = 1.45926018e-14
ExecutionTime = 768.37 s  ClockTime = 896 s

Time = 626

smoothSolver:  Solving for Uy, Initial residual = 1.2599959e-05, Final residual = 1.18711782e-06, No Iterations 8
smoothSolver:  Solving for Uz, Initial residual = 0.000102858258, Final residual = 7.42217516e-06, No Iterations 5
GAMG:  Solving for p, Initial residual = 2.71922536e-05, Final residual = 1.25330464e-06, No Iterations 2
time step continuity errors : sum local = 9.86043155e-05, global = 1.36931611e-17, cumulative = 1.46784147e-14
ExecutionTime = 770 s  ClockTime = 896 s


SIMPLE solution converged in 627 iterations

GAMG:  Solving for p, Initial residual = 2.79644614e-05, Final residual = 1.28868834e-06, No Iterations 2
time step continuity errors : sum local = 0.000101463181, global = 3.24665516e-17, cumulative = 1.45297544e-14
ExecutionTime = 768.78 s  ClockTime = 896 s

Time = 624

End

smoothSolver:  Solving for Ux, Initial residual = 1.23392882e-05, Final residual = 1.15823352e-06, No Iterations 8
smoothSolver:  Solving for Uy, Initial residual = 1.23404911e-05, Final residual = 1.16188522e-06, No Iterations 8
smoothSolver:  Solving for Uz, Initial residual = 0.000100683506, Final residual = 7.37945343e-06, No Iterations 5
smoothSolver:  Solving for Ux, Initial residual = 1.25003108e-05, Final residual = 1.17368921e-06, No Iterations 8
GAMG:  Solving for p, Initial residual = 2.73351769e-05, Final residual = 1.25713206e-06, No Iterations 2
time step continuity errors : sum local = 9.88846799e-05, global = 7.21197398e-17, cumulative = 1.46647215e-14
ExecutionTime = 769.14 s  ClockTime = 897 s

Time = 627

smoothSolver:  Solving for Uy, Initial residual = 1.25062294e-05, Final residual = 1.178027e-06, No Iterations 8
smoothSolver:  Solving for Uz, Initial residual = 0.000102135392, Final residual = 7.29184114e-06, No Iterations 5
GAMG:  Solving for p, Initial residual = 2.77245456e-05, Final residual = 1.27770327e-06, No Iterations 2
time step continuity errors : sum local = 0.000100600608, global = 2.90853513e-17, cumulative = 1.45588398e-14
ExecutionTime = 769.54 s  ClockTime = 897 s

Time = 625

smoothSolver:  Solving for Ux, Initial residual = 1.22514118e-05, Final residual = 1.15094602e-06, No Iterations 8
smoothSolver:  Solving for Uy, Initial residual = 1.22504357e-05, Final residual = 1.15430392e-06, No Iterations 8
smoothSolver:  Solving for Uz, Initial residual = 9.99532834e-05, Final residual = 7.21196592e-06, No Iterations 5
smoothSolver:  Solving for Ux, Initial residual = 1.24096733e-05, Final residual = 1.16510114e-06, No Iterations 8
GAMG:  Solving for p, Initial residual = 2.71922536e-05, Final residual = 1.25330464e-06, No Iterations 2
time step continuity errors : sum local = 9.86043155e-05, global = 1.36931611e-17, cumulative = 1.46784147e-14
ExecutionTime = 769.87 s  ClockTime = 897 s


SIMPLE solution converged in 627 iterations

smoothSolver:  Solving for Uy, Initial residual = 1.24155167e-05, Final residual = 1.16941396e-06, No Iterations 8
smoothSolver:  Solving for Uz, Initial residual = 0.000101283296, Final residual = 1.01101288e-05, No Iterations 4
GAMG:  Solving for p, Initial residual = 2.70788946e-05, Final residual = 1.23294923e-06, No Iterations 2
time step continuity errors : sum local = 9.68922419e-05, global = 3.37620046e-17, cumulative = 1.45926018e-14
ExecutionTime = 770.25 s  ClockTime = 898 s

Time = 626

End

smoothSolver:  Solving for Ux, Initial residual = 1.23392882e-05, Final residual = 1.15823352e-06, No Iterations 8
End

smoothSolver:  Solving for Uy, Initial residual = 1.23404911e-05, Final residual = 1.16188522e-06, No Iterations 8
smoothSolver:  Solving for Uz, Initial residual = 0.000100683506, Final residual = 7.37945343e-06, No Iterations 5
GAMG:  Solving for p, Initial residual = 2.73351769e-05, Final residual = 1.25713206e-06, No Iterations 2
time step continuity errors : sum local = 9.88846799e-05, global = 7.21197398e-17, cumulative = 1.46647215e-14
ExecutionTime = 770.89 s  ClockTime = 898 s

Time = 627

smoothSolver:  Solving for Ux, Initial residual = 1.22514118e-05, Final residual = 1.15094602e-06, No Iterations 8
smoothSolver:  Solving for Uy, Initial residual = 1.22504357e-05, Final residual = 1.15430392e-06, No Iterations 8
End

smoothSolver:  Solving for Uz, Initial residual = 9.99532834e-05, Final residual = 7.21196592e-06, No Iterations 5
GAMG:  Solving for p, Initial residual = 2.71922536e-05, Final residual = 1.25330464e-06, No Iterations 2
time step continuity errors : sum local = 9.86043155e-05, global = 1.36931611e-17, cumulative = 1.46784147e-14
ExecutionTime = 771.44 s  ClockTime = 899 s


SIMPLE solution converged in 627 iterations

End

End

