/*---------------------------------------------------------------------------*\
| =========                 |                                                 |
| \\      /  F ield         | OpenFOAM: The Open Source CFD Toolbox           |
|  \\    /   O peration     | Version:  3.0.x                                 |
|   \\  /    A nd           | Web:      www.OpenFOAM.org                      |
|    \\/     M anipulation  |                                                 |
\*---------------------------------------------------------------------------*/
Build  : 3.0.x-5b548639bc6e
Exec   : icoFoam
Date   : Jun 16 2016
Time   : 18:14:17
Host   : "dagobah"
PID    : 9610
Case   : /home/joegi/OpenFOAM/of_courses/2016a/of_course_tutorials/30x/101Linear_SOLVERS/log2
nProcs : 1
sigFpe : Enabling floating point exception trapping (FOAM_SIGFPE).
fileModificationChecking : Monitoring run-time modified files using timeStampMaster
allowSystemOperations : Allowing user-supplied system call operations

// * * * * * * * * * * * * * * * * * * * * * * * * * * * * * * * * * * * * * //
Create time

Create mesh for time = 0


PISO: Operating solver in PISO mode

Reading transportProperties

Reading field p

Reading field U

Reading/calculating face flux field phi


Starting time loop

Time = 0.0005

Courant Number mean: 0 max: 0
smoothSolver:  Solving for Ux, Initial residual = 0, Final residual = 0, No Iterations 0
smoothSolver:  Solving for Uy, Initial residual = 0, Final residual = 0, No Iterations 0
smoothSolver:  Solving for Uz, Initial residual = 1, Final residual = 4.7897449e-09, No Iterations 15
FDICPCG:  Solving for p, Initial residual = 1, Final residual = 0.008053357, No Iterations 564
FDICPCG:  Solving for p, Initial residual = 0.00012138135, Final residual = 1.1294528e-06, No Iterations 20
time step continuity errors : sum local = 5.4368244e-07, global = -7.7238039e-09, cumulative = -7.7238039e-09
FDICPCG:  Solving for p, Initial residual = 0.0042639911, Final residual = 3.2111193e-05, No Iterations 557
FDICPCG:  Solving for p, Initial residual = 0.00025714759, Final residual = 8.5052329e-07, No Iterations 29
time step continuity errors : sum local = 1.5720306e-07, global = 8.3162711e-10, cumulative = -6.8921768e-09
ExecutionTime = 2.07 s  ClockTime = 2 s

fieldMinMax minmaxdomain output:
    min(p) = 0 at location (-0.000525 0 0.216)
    max(p) = 706.2719 at location (-0.00014395116 0.0014503614 0.0015)
    min(U) = (-0.0095527092 -0.00041376144 0.35053013) at location (0.0014503614 -0.00014395116 0.0015)
    max(U) = (0.0002007819 0.028489228 0.83281033) at location (-0.00011538917 -0.0012080729 0.0015)

Time = 0.001

Courant Number mean: 0.23865032 max: 0.39452313
smoothSolver:  Solving for Ux, Initial residual = 0.35050688, Final residual = 3.686118e-09, No Iterations 13
smoothSolver:  Solving for Uy, Initial residual = 0.35067635, Final residual = 5.0901279e-09, No Iterations 13
smoothSolver:  Solving for Uz, Initial residual = 0.60025805, Final residual = 9.4694639e-09, No Iterations 14
FDICPCG:  Solving for p, Initial residual = 0.019524719, Final residual = 0.00017874505, No Iterations 561
FDICPCG:  Solving for p, Initial residual = 0.00038699327, Final residual = 3.1629718e-06, No Iterations 17
time step continuity errors : sum local = 8.4869736e-07, global = 1.8334571e-08, cumulative = 1.1442394e-08
FDICPCG:  Solving for p, Initial residual = 0.0077794153, Final residual = 5.9708996e-05, No Iterations 555
FDICPCG:  Solving for p, Initial residual = 0.0086832191, Final residual = 9.5049553e-07, No Iterations 102
time step continuity errors : sum local = 8.5255344e-09, global = 1.4179063e-11, cumulative = 1.1456573e-08
ExecutionTime = 4.17 s  ClockTime = 4 s

fieldMinMax minmaxdomain output:
    min(p) = 0 at location (-0.000525 0 0.216)
    max(p) = 29.173671 at location (0.00092118364 0.0011227589 0.0015)
    min(U) = (-0.0014353359 -0.012561762 0.32332506) at location (0.00014395116 0.0014503614 0.0015)
    max(U) = (0.0044215248 0.043109955 1.030527) at location (-0.00011538917 -0.0012080729 0.0015)

Time = 0.0015

Courant Number mean: 0.23990139 max: 0.47644896
smoothSolver:  Solving for Ux, Initial residual = 0.17269507, Final residual = 3.0095256e-09, No Iterations 13
smoothSolver:  Solving for Uy, Initial residual = 0.17286481, Final residual = 4.1954159e-09, No Iterations 13
smoothSolver:  Solving for Uz, Initial residual = 0.070507509, Final residual = 5.8910183e-09, No Iterations 12
FDICPCG:  Solving for p, Initial residual = 0.05882671, Final residual = 0.00052452263, No Iterations 554
FDICPCG:  Solving for p, Initial residual = 0.0038947707, Final residual = 3.8185776e-05, No Iterations 14
time step continuity errors : sum local = 4.7068348e-07, global = -2.3763598e-09, cumulative = 9.0802135e-09
FDICPCG:  Solving for p, Initial residual = 0.017363325, Final residual = 0.00016572957, No Iterations 555
FDICPCG:  Solving for p, Initial residual = 0.002716601, Final residual = 9.7150117e-07, No Iterations 49
time step continuity errors : sum local = 9.6676449e-09, global = 5.4775727e-12, cumulative = 9.0856911e-09
ExecutionTime = 5.25 s  ClockTime = 5 s

fieldMinMax minmaxdomain output:
    min(p) = 0 at location (-0.000525 0 0.216)
    max(p) = 35.906089 at location (0.00014395116 -0.0014503614 0.0015)
    min(U) = (-0.0013945333 0.013053012 0.31105875) at location (0.00014395116 -0.0014503614 0.0015)
    max(U) = (0.0054358684 0.051048161 1.1011825) at location (-0.00011538917 -0.0012080729 0.0015)

Time = 0.002

Courant Number mean: 0.24035984 max: 0.51470603
smoothSolver:  Solving for Ux, Initial residual = 0.070185328, Final residual = 3.5745267e-09, No Iterations 12
smoothSolver:  Solving for Uy, Initial residual = 0.070223185, Final residual = 4.8679543e-09, No Iterations 12
smoothSolver:  Solving for Uz, Initial residual = 0.046073168, Final residual = 6.5453674e-09, No Iterations 12
FDICPCG:  Solving for p, Initial residual = 0.013298643, Final residual = 0.00012147164, No Iterations 561
FDICPCG:  Solving for p, Initial residual = 0.0011399159, Final residual = 9.8887193e-06, No Iterations 17
time step continuity errors : sum local = 6.6910148e-08, global = 1.2814476e-09, cumulative = 1.0367139e-08
FDICPCG:  Solving for p, Initial residual = 0.0077321429, Final residual = 5.2653077e-05, No Iterations 557
FDICPCG:  Solving for p, Initial residual = 0.00042997182, Final residual = 7.8502576e-07, No Iterations 24
time step continuity errors : sum local = 6.7953766e-09, global = -1.2491494e-10, cumulative = 1.0242224e-08
ExecutionTime = 6.67 s  ClockTime = 6 s

fieldMinMax minmaxdomain output:
    min(p) = 0 at location (-0.000525 0 0.216)
    max(p) = 31.019821 at location (0.00014395116 0.0014503614 0.0015)
    min(U) = (-0.00015683975 -0.00015528155 0.21550371) at location (-0.00014395116 -0.0014503614 0.0075)
    max(U) = (0.0060970549 0.056412294 1.2197143) at location (-0.00010410186 -0.0011123239 0.0015)

Time = 0.0025

Courant Number mean: 0.24071588 max: 0.53885669
smoothSolver:  Solving for Ux, Initial residual = 0.050516273, Final residual = 3.2792595e-09, No Iterations 12
smoothSolver:  Solving for Uy, Initial residual = 0.050518369, Final residual = 4.5432914e-09, No Iterations 12
smoothSolver:  Solving for Uz, Initial residual = 0.032540136, Final residual = 5.0952411e-09, No Iterations 12
FDICPCG:  Solving for p, Initial residual = 0.0081226194, Final residual = 6.7851436e-05, No Iterations 553
FDICPCG:  Solving for p, Initial residual = 0.00067947247, Final residual = 6.1999225e-06, No Iterations 14
time step continuity errors : sum local = 4.2432873e-08, global = -9.3227491e-10, cumulative = 9.3099488e-09
FDICPCG:  Solving for p, Initial residual = 0.0029226818, Final residual = 2.3500954e-05, No Iterations 557
FDICPCG:  Solving for p, Initial residual = 0.0003025758, Final residual = 7.6806758e-07, No Iterations 31
time step continuity errors : sum local = 6.0795931e-09, global = 4.0609148e-11, cumulative = 9.350558e-09
ExecutionTime = 8 s  ClockTime = 8 s

fieldMinMax minmaxdomain output:
    min(p) = 0 at location (-0.000525 0 0.216)
    max(p) = 28.372813 at location (0.00014395116 -0.0014503614 0.0015)
    min(U) = (-0.00013669839 -0.00014195578 0.19570951) at location (-0.00014395116 -0.0014503614 0.0075)
    max(U) = (0.0065257665 0.060862685 1.2510287) at location (-0.00010410186 -0.0011123239 0.0015)

Time = 0.003

Courant Number mean: 0.24098738 max: 0.55455824
smoothSolver:  Solving for Ux, Initial residual = 0.037475866, Final residual = 9.0111101e-09, No Iterations 11
smoothSolver:  Solving for Uy, Initial residual = 0.037472608, Final residual = 3.4868599e-09, No Iterations 12
smoothSolver:  Solving for Uz, Initial residual = 0.025182478, Final residual = 4.2627833e-09, No Iterations 12
FDICPCG:  Solving for p, Initial residual = 0.0051206469, Final residual = 3.7065296e-05, No Iterations 560
FDICPCG:  Solving for p, Initial residual = 0.00035405473, Final residual = 3.3241594e-06, No Iterations 21
time step continuity errors : sum local = 2.2180285e-08, global = 2.2545624e-10, cumulative = 9.5760142e-09
FDICPCG:  Solving for p, Initial residual = 0.0015676191, Final residual = 1.319796e-05, No Iterations 557
FDICPCG:  Solving for p, Initial residual = 0.00016769302, Final residual = 9.4734003e-07, No Iterations 22
time step continuity errors : sum local = 7.0209548e-09, global = -6.5222621e-11, cumulative = 9.5107916e-09
ExecutionTime = 9.19 s  ClockTime = 9 s

fieldMinMax minmaxdomain output:
    min(p) = 0 at location (-0.000525 0 0.216)
    max(p) = 26.556065 at location (0.0014503614 -0.00014395116 0.0015)
    min(U) = (-0.00012064374 -0.00012045833 0.18277673) at location (-0.00014395116 -0.0014503614 0.0075)
    max(U) = (0.0068078338 0.064004284 1.2712285) at location (-0.00010410186 -0.0011123239 0.0015)

Time = 0.0035

Courant Number mean: 0.24120847 max: 0.56726477
smoothSolver:  Solving for Ux, Initial residual = 0.030033827, Final residual = 7.5692955e-09, No Iterations 11
smoothSolver:  Solving for Uy, Initial residual = 0.0300336, Final residual = 2.942496e-09, No Iterations 12
smoothSolver:  Solving for Uz, Initial residual = 0.02012968, Final residual = 3.6669903e-09, No Iterations 12
FDICPCG:  Solving for p, Initial residual = 0.0036885152, Final residual = 3.393039e-05, No Iterations 556
FDICPCG:  Solving for p, Initial residual = 0.00029509342, Final residual = 2.4981668e-06, No Iterations 20
time step continuity errors : sum local = 1.6231041e-08, global = -1.2352809e-10, cumulative = 9.3872635e-09
FDICPCG:  Solving for p, Initial residual = 0.0011337791, Final residual = 1.0164109e-05, No Iterations 555
FDICPCG:  Solving for p, Initial residual = 0.00013788544, Final residual = 8.6498594e-07, No Iterations 15
time step continuity errors : sum local = 6.0911124e-09, global = 2.8828981e-13, cumulative = 9.3875518e-09
ExecutionTime = 10.55 s  ClockTime = 10 s

fieldMinMax minmaxdomain output:
    min(p) = 0 at location (-0.000525 0 0.216)
    max(p) = 25.229058 at location (-0.00014395116 0.0014503614 0.0015)
    min(U) = (-0.00010857517 -9.7311997e-05 0.1737161) at location (-0.00014395116 -0.0014503614 0.0075)
    max(U) = (0.0069958123 0.066211839 1.2854721) at location (-0.00010410186 -0.0011123239 0.0015)

Time = 0.004

Courant Number mean: 0.24140012 max: 0.57717831
smoothSolver:  Solving for Ux, Initial residual = 0.024737014, Final residual = 6.4311272e-09, No Iterations 11
smoothSolver:  Solving for Uy, Initial residual = 0.024735595, Final residual = 8.961519e-09, No Iterations 11
smoothSolver:  Solving for Uz, Initial residual = 0.016424611, Final residual = 3.2010445e-09, No Iterations 12
FDICPCG:  Solving for p, Initial residual = 0.0028148805, Final residual = 2.0983525e-05, No Iterations 560
FDICPCG:  Solving for p, Initial residual = 0.00022429778, Final residual = 1.463163e-06, No Iterations 14
time step continuity errors : sum local = 9.2745266e-09, global = -1.2328036e-10, cumulative = 9.2642714e-09
FDICPCG:  Solving for p, Initial residual = 0.00088106623, Final residual = 7.1888593e-06, No Iterations 556
FDICPCG:  Solving for p, Initial residual = 0.0001085994, Final residual = 9.8550042e-07, No Iterations 11
time step continuity errors : sum local = 6.6604459e-09, global = 7.9062946e-11, cumulative = 9.3433343e-09
ExecutionTime = 11.87 s  ClockTime = 12 s

fieldMinMax minmaxdomain output:
    min(p) = 0 at location (-0.000525 0 0.216)
    max(p) = 24.214498 at location (-0.00014395116 -0.0014503614 0.0015)
    min(U) = (-9.9714154e-05 -7.4627162e-05 0.16712456) at location (-0.00014395116 -0.0014503614 0.0075)
    max(U) = (0.0071211853 0.067750968 1.2962839) at location (-0.00010410186 -0.0011123239 0.0015)

Time = 0.0045

Courant Number mean: 0.24157947 max: 0.58402471
smoothSolver:  Solving for Ux, Initial residual = 0.020825174, Final residual = 5.645741e-09, No Iterations 11
smoothSolver:  Solving for Uy, Initial residual = 0.020826449, Final residual = 7.9742585e-09, No Iterations 11
smoothSolver:  Solving for Uz, Initial residual = 0.01369117, Final residual = 9.3076859e-09, No Iterations 11
FDICPCG:  Solving for p, Initial residual = 0.0022790217, Final residual = 1.906442e-05, No Iterations 560
FDICPCG:  Solving for p, Initial residual = 0.0001811121, Final residual = 1.3366561e-06, No Iterations 14
time step continuity errors : sum local = 8.2879225e-09, global = -9.1220221e-11, cumulative = 9.2521141e-09
FDICPCG:  Solving for p, Initial residual = 0.00074247259, Final residual = 6.3575343e-06, No Iterations 556
FDICPCG:  Solving for p, Initial residual = 8.8231994e-05, Final residual = 8.4469683e-07, No Iterations 11
time step continuity errors : sum local = 5.5193749e-09, global = 7.6107967e-11, cumulative = 9.3282221e-09
ExecutionTime = 13.77 s  ClockTime = 13 s

fieldMinMax minmaxdomain output:
    min(p) = 0 at location (-0.000525 0 0.216)
    max(p) = 23.41393 at location (0.00014395116 -0.0014503614 0.0015)
    min(U) = (-9.3055842e-05 -5.378166e-05 0.16223937) at location (-0.00014395116 -0.0014503614 0.0075)
    max(U) = (0.0072048045 0.06881444 1.3049358) at location (-0.00010410186 -0.0011123239 0.0015)

Time = 0.005

Courant Number mean: 0.24174024 max: 0.58872457
smoothSolver:  Solving for Ux, Initial residual = 0.017776874, Final residual = 5.0697098e-09, No Iterations 11
smoothSolver:  Solving for Uy, Initial residual = 0.017777147, Final residual = 7.1801915e-09, No Iterations 11
smoothSolver:  Solving for Uz, Initial residual = 0.011627427, Final residual = 8.2691223e-09, No Iterations 11
FDICPCG:  Solving for p, Initial residual = 0.001909184, Final residual = 1.6157891e-05, No Iterations 560
FDICPCG:  Solving for p, Initial residual = 0.00014817269, Final residual = 1.1227883e-06, No Iterations 14
time step continuity errors : sum local = 6.8270254e-09, global = -7.5666089e-11, cumulative = 9.252556e-09
FDICPCG:  Solving for p, Initial residual = 0.00065544738, Final residual = 5.4678635e-06, No Iterations 556
FDICPCG:  Solving for p, Initial residual = 7.2891997e-05, Final residual = 9.6041266e-07, No Iterations 7
time step continuity errors : sum local = 6.1005293e-09, global = 1.3433663e-10, cumulative = 9.3868926e-09
ExecutionTime = 15.46 s  ClockTime = 15 s

fieldMinMax minmaxdomain output:
    min(p) = 0 at location (-0.000525 0 0.216)
    max(p) = 22.767116 at location (0.0014503614 -0.00014395116 0.0015)
    min(U) = (-8.8359855e-05 -3.672069e-05 0.15860059) at location (-0.00014395116 -0.0014503614 0.0075)
    max(U) = (0.0072606205 0.069541802 1.3120597) at location (-0.00010410186 -0.0011123239 0.0015)

Time = 0.0055

Courant Number mean: 0.24188285 max: 0.59192616
smoothSolver:  Solving for Ux, Initial residual = 0.015315853, Final residual = 4.5104671e-09, No Iterations 11
smoothSolver:  Solving for Uy, Initial residual = 0.01531688, Final residual = 6.4205072e-09, No Iterations 11
smoothSolver:  Solving for Uz, Initial residual = 0.010022908, Final residual = 7.3811966e-09, No Iterations 11
FDICPCG:  Solving for p, Initial residual = 0.0016210093, Final residual = 1.2987101e-05, No Iterations 560
FDICPCG:  Solving for p, Initial residual = 0.00012063125, Final residual = 8.5764608e-07, No Iterations 14
time step continuity errors : sum local = 5.1254272e-09, global = -2.4769598e-11, cumulative = 9.362123e-09
FDICPCG:  Solving for p, Initial residual = 0.00058884057, Final residual = 5.4487316e-06, No Iterations 555
FDICPCG:  Solving for p, Initial residual = 6.1498284e-05, Final residual = 9.9425841e-07, No Iterations 7
time step continuity errors : sum local = 6.1656369e-09, global = 1.3643029e-10, cumulative = 9.4985533e-09
ExecutionTime = 16.82 s  ClockTime = 16 s

fieldMinMax minmaxdomain output:
    min(p) = 0 at location (-0.000525 0 0.216)
    max(p) = 22.234787 at location (-0.00014395116 0.0014503614 0.0015)
    min(U) = (-8.5162029e-05 -2.1332456e-05 0.1559035) at location (-0.00014395116 -0.0014503614 0.0075)
    max(U) = (0.0072979776 0.070033956 1.3179756) at location (-0.00010410186 -0.0011123239 0.0015)

Time = 0.006

Courant Number mean: 0.24201033 max: 0.59408847
smoothSolver:  Solving for Ux, Initial residual = 0.013296444, Final residual = 3.9862388e-09, No Iterations 11
smoothSolver:  Solving for Uy, Initial residual = 0.013297706, Final residual = 5.706089e-09, No Iterations 11
smoothSolver:  Solving for Uz, Initial residual = 0.0087182274, Final residual = 6.6108472e-09, No Iterations 11
FDICPCG:  Solving for p, Initial residual = 0.0013870697, Final residual = 1.3393791e-05, No Iterations 556
FDICPCG:  Solving for p, Initial residual = 0.00010140362, Final residual = 6.8940431e-07, No Iterations 20
time step continuity errors : sum local = 4.0574411e-09, global = -4.1562533e-11, cumulative = 9.4569908e-09
FDICPCG:  Solving for p, Initial residual = 0.00052789835, Final residual = 4.6100977e-06, No Iterations 555
FDICPCG:  Solving for p, Initial residual = 5.1343831e-05, Final residual = 9.5038664e-07, No Iterations 6
time step continuity errors : sum local = 5.773355e-09, global = 7.151572e-11, cumulative = 9.5285065e-09
ExecutionTime = 18.11 s  ClockTime = 18 s

fieldMinMax minmaxdomain output:
    min(p) = 0 at location (-0.000525 0 0.216)
    max(p) = 21.790159 at location (-0.00014395116 0.0014503614 0.0015)
    min(U) = (-8.2719163e-05 -7.1285548e-06 0.15393067) at location (-0.00014395116 -0.0014503614 0.0075)
    max(U) = (0.0073231665 0.070363413 1.3228615) at location (-0.00010410186 -0.0011123239 0.0015)

Time = 0.0065

Courant Number mean: 0.24212415 max: 0.59553671
smoothSolver:  Solving for Ux, Initial residual = 0.011628621, Final residual = 3.5369696e-09, No Iterations 11
smoothSolver:  Solving for Uy, Initial residual = 0.011628647, Final residual = 5.109223e-09, No Iterations 11
smoothSolver:  Solving for Uz, Initial residual = 0.0076275631, Final residual = 5.9332788e-09, No Iterations 11
FDICPCG:  Solving for p, Initial residual = 0.0012060102, Final residual = 1.1862618e-05, No Iterations 555
FDICPCG:  Solving for p, Initial residual = 8.4714152e-05, Final residual = 8.5938901e-07, No Iterations 19
time step continuity errors : sum local = 4.9896805e-09, global = -3.2209944e-11, cumulative = 9.4962966e-09
FDICPCG:  Solving for p, Initial residual = 0.00047008785, Final residual = 4.3624009e-06, No Iterations 554
FDICPCG:  Solving for p, Initial residual = 4.3552609e-05, Final residual = 7.9106589e-07, No Iterations 6
time step continuity errors : sum local = 4.7204568e-09, global = 9.299749e-11, cumulative = 9.5892941e-09
ExecutionTime = 20.12 s  ClockTime = 20 s

fieldMinMax minmaxdomain output:
    min(p) = 0 at location (-0.000525 0 0.216)
    max(p) = 21.41428 at location (0.00014395116 -0.0014503614 0.0015)
    min(U) = (-8.0773914e-05 6.2544112e-06 0.15251772) at location (-0.00014395116 -0.0014503614 0.0075)
    max(U) = (0.0073403233 0.070582101 1.3268383) at location (-0.00010410186 -0.0011123239 0.0015)

Time = 0.007

Courant Number mean: 0.2422264 max: 0.59650084
smoothSolver:  Solving for Ux, Initial residual = 0.010239163, Final residual = 3.1625024e-09, No Iterations 11
smoothSolver:  Solving for Uy, Initial residual = 0.010240452, Final residual = 4.568919e-09, No Iterations 11
smoothSolver:  Solving for Uz, Initial residual = 0.0067034852, Final residual = 5.3361852e-09, No Iterations 11
FDICPCG:  Solving for p, Initial residual = 0.0010551865, Final residual = 7.8823392e-06, No Iterations 555
FDICPCG:  Solving for p, Initial residual = 7.0403815e-05, Final residual = 9.6468223e-07, No Iterations 13
time step continuity errors : sum local = 5.5339805e-09, global = -8.7637913e-11, cumulative = 9.5016561e-09
FDICPCG:  Solving for p, Initial residual = 0.00041532225, Final residual = 3.4111775e-06, No Iterations 556
FDICPCG:  Solving for p, Initial residual = 3.8029731e-05, Final residual = 8.6195033e-07, No Iterations 10
time step continuity errors : sum local = 5.0640246e-09, global = -5.7292864e-11, cumulative = 9.4443633e-09
ExecutionTime = 22.02 s  ClockTime = 22 s

fieldMinMax minmaxdomain output:
    min(p) = 0 at location (-0.000525 0 0.216)
    max(p) = 21.093345 at location (0.0014503614 0.00014395116 0.0015)
    min(U) = (-7.9553764e-05 1.6890153e-05 0.15153571) at location (-0.00014395116 -0.0014503614 0.0075)
    max(U) = (0.0073522762 0.070726745 1.3300093) at location (-0.00010410186 -0.0011123239 0.0015)

Time = 0.0075

Courant Number mean: 0.2423187 max: 0.59714188
smoothSolver:  Solving for Ux, Initial residual = 0.0090666288, Final residual = 2.8058173e-09, No Iterations 11
smoothSolver:  Solving for Uy, Initial residual = 0.00906823, Final residual = 4.0710215e-09, No Iterations 11
smoothSolver:  Solving for Uz, Initial residual = 0.0059135335, Final residual = 4.8060558e-09, No Iterations 11
FDICPCG:  Solving for p, Initial residual = 0.00091876514, Final residual = 8.7763499e-06, No Iterations 560
FDICPCG:  Solving for p, Initial residual = 6.2548672e-05, Final residual = 8.1278511e-07, No Iterations 14
time step continuity errors : sum local = 4.6129364e-09, global = 3.2815865e-11, cumulative = 9.4771791e-09
FDICPCG:  Solving for p, Initial residual = 0.00037657744, Final residual = 3.1563742e-06, No Iterations 556
FDICPCG:  Solving for p, Initial residual = 3.3536646e-05, Final residual = 8.0419346e-07, No Iterations 10
time step continuity errors : sum local = 4.6606895e-09, global = -3.2515434e-11, cumulative = 9.4446637e-09
ExecutionTime = 23.38 s  ClockTime = 23 s

fieldMinMax minmaxdomain output:
    min(p) = 0 at location (-0.000525 0 0.216)
    max(p) = 20.81704 at location (0.0014503614 0.00014395116 0.0015)
    min(U) = (-7.8844169e-05 2.5345614e-05 0.15088148) at location (-0.00014395116 -0.0014503614 0.0075)
    max(U) = (0.0073608727 0.070822931 1.3324756) at location (-0.00010410186 -0.0011123239 0.0015)

Time = 0.008

Courant Number mean: 0.24240196 max: 0.59757132
smoothSolver:  Solving for Ux, Initial residual = 0.0080852754, Final residual = 9.1409295e-09, No Iterations 10
smoothSolver:  Solving for Uy, Initial residual = 0.0080855805, Final residual = 3.6441489e-09, No Iterations 11
smoothSolver:  Solving for Uz, Initial residual = 0.0052357038, Final residual = 4.3331165e-09, No Iterations 11
FDICPCG:  Solving for p, Initial residual = 0.00080083835, Final residual = 7.7297167e-06, No Iterations 560
FDICPCG:  Solving for p, Initial residual = 5.4132522e-05, Final residual = 7.3201979e-07, No Iterations 14
time step continuity errors : sum local = 4.1151207e-09, global = 1.0270655e-11, cumulative = 9.4549344e-09
FDICPCG:  Solving for p, Initial residual = 0.00034664298, Final residual = 3.3982332e-06, No Iterations 555
FDICPCG:  Solving for p, Initial residual = 2.9757277e-05, Final residual = 7.9695973e-07, No Iterations 10
time step continuity errors : sum local = 4.5636378e-09, global = -3.0940167e-11, cumulative = 9.4239942e-09
ExecutionTime = 24.85 s  ClockTime = 25 s

fieldMinMax minmaxdomain output:
    min(p) = 0 at location (-0.000525 0 0.216)
    max(p) = 20.577491 at location (0.0014503614 0.00014395116 0.0015)
    min(U) = (-7.8490197e-05 3.1967584e-05 0.15047184) at location (-0.00014395116 -0.0014503614 0.0075)
    max(U) = (0.0073673077 0.070888221 1.3343393) at location (-0.00010410186 -0.0011123239 0.0015)

Time = 0.0085

Courant Number mean: 0.24247729 max: 0.59786528
smoothSolver:  Solving for Ux, Initial residual = 0.0072345673, Final residual = 8.1484745e-09, No Iterations 10
smoothSolver:  Solving for Uy, Initial residual = 0.0072354789, Final residual = 3.2932339e-09, No Iterations 11
smoothSolver:  Solving for Uz, Initial residual = 0.0046592782, Final residual = 3.909394e-09, No Iterations 11
FDICPCG:  Solving for p, Initial residual = 0.0007096091, Final residual = 4.7978612e-06, No Iterations 561
FDICPCG:  Solving for p, Initial residual = 4.5297396e-05, Final residual = 7.328333e-07, No Iterations 13
time step continuity errors : sum local = 4.0848658e-09, global = 2.3546443e-11, cumulative = 9.4475406e-09
FDICPCG:  Solving for p, Initial residual = 0.00031407544, Final residual = 2.5672231e-06, No Iterations 556
FDICPCG:  Solving for p, Initial residual = 2.5275649e-05, Final residual = 8.7844715e-07, No Iterations 6
time step continuity errors : sum local = 4.9772113e-09, global = -1.2603498e-10, cumulative = 9.3215057e-09
ExecutionTime = 26.15 s  ClockTime = 26 s

fieldMinMax minmaxdomain output:
    min(p) = 0 at location (-0.000525 0 0.216)
    max(p) = 20.368576 at location (-0.00014395116 -0.0014503614 0.0015)
    min(U) = (-7.8380976e-05 3.7044672e-05 0.15024005) at location (-0.00014395116 -0.0014503614 0.0075)
    max(U) = (0.0073723212 0.070934376 1.3357019) at location (-0.00010410186 -0.0011123239 0.0015)

Time = 0.009

Courant Number mean: 0.24254548 max: 0.59807456
smoothSolver:  Solving for Ux, Initial residual = 0.0064839562, Final residual = 7.3241713e-09, No Iterations 10
smoothSolver:  Solving for Uy, Initial residual = 0.0064844093, Final residual = 2.9704853e-09, No Iterations 11
smoothSolver:  Solving for Uz, Initial residual = 0.0041551463, Final residual = 3.5286675e-09, No Iterations 11
FDICPCG:  Solving for p, Initial residual = 0.00063533824, Final residual = 4.457629e-06, No Iterations 561
FDICPCG:  Solving for p, Initial residual = 3.8533839e-05, Final residual = 9.6626437e-07, No Iterations 12
time step continuity errors : sum local = 5.3454786e-09, global = 5.122675e-11, cumulative = 9.3727324e-09
FDICPCG:  Solving for p, Initial residual = 0.00028640237, Final residual = 2.2536424e-06, No Iterations 556
FDICPCG:  Solving for p, Initial residual = 2.1665357e-05, Final residual = 9.368987e-07, No Iterations 5
time step continuity errors : sum local = 5.2588069e-09, global = -1.0150059e-10, cumulative = 9.2712318e-09
ExecutionTime = 27.49 s  ClockTime = 27 s

fieldMinMax minmaxdomain output:
    min(p) = 0 at location (-0.000525 0 0.216)
    max(p) = 20.18545 at location (0.00014395116 0.0014503614 0.0015)
    min(U) = (-7.8439213e-05 4.0840787e-05 0.15013323) at location (-0.00014395116 -0.0014503614 0.0075)
    max(U) = (0.0073763876 0.070969045 1.3366597) at location (-0.00010410186 -0.0011123239 0.0015)

Time = 0.0095

Courant Number mean: 0.24260728 max: 0.59823227
smoothSolver:  Solving for Ux, Initial residual = 0.0058179335, Final residual = 6.6341749e-09, No Iterations 10
smoothSolver:  Solving for Uy, Initial residual = 0.0058180236, Final residual = 9.4548771e-09, No Iterations 10
smoothSolver:  Solving for Uz, Initial residual = 0.0037124259, Final residual = 3.1881964e-09, No Iterations 11
FDICPCG:  Solving for p, Initial residual = 0.0005752392, Final residual = 3.816095e-06, No Iterations 561
FDICPCG:  Solving for p, Initial residual = 3.2281701e-05, Final residual = 7.928607e-07, No Iterations 12
time step continuity errors : sum local = 4.3568216e-09, global = 4.3653352e-11, cumulative = 9.3148852e-09
FDICPCG:  Solving for p, Initial residual = 0.00026545519, Final residual = 2.5395008e-06, No Iterations 555
FDICPCG:  Solving for p, Initial residual = 1.8723917e-05, Final residual = 8.0690573e-07, No Iterations 5
time step continuity errors : sum local = 4.4917146e-09, global = -7.2688559e-11, cumulative = 9.2421966e-09
ExecutionTime = 28.7 s  ClockTime = 28 s

fieldMinMax minmaxdomain output:
    min(p) = 0 at location (-0.000525 0 0.216)
    max(p) = 20.024228 at location (0.00014395116 0.0014503614 0.0015)
    min(U) = (-7.859304e-05 4.359984e-05 0.15011021) at location (-0.00014395116 -0.0014503614 0.0075)
    max(U) = (0.0073797999 0.070997013 1.3373015) at location (-0.00010410186 -0.0011123239 0.0015)

Time = 0.01

Courant Number mean: 0.24266352 max: 0.59835905
smoothSolver:  Solving for Ux, Initial residual = 0.0052523548, Final residual = 5.9924738e-09, No Iterations 10
smoothSolver:  Solving for Uy, Initial residual = 0.0052525684, Final residual = 8.5449418e-09, No Iterations 10
smoothSolver:  Solving for Uz, Initial residual = 0.0033228086, Final residual = 9.562798e-09, No Iterations 10
FDICPCG:  Solving for p, Initial residual = 0.00052115755, Final residual = 5.1825305e-06, No Iterations 560
FDICPCG:  Solving for p, Initial residual = 2.8174134e-05, Final residual = 9.7601031e-07, No Iterations 8
time step continuity errors : sum local = 5.3311153e-09, global = 9.3908419e-11, cumulative = 9.336105e-09
FDICPCG:  Solving for p, Initial residual = 0.00024323545, Final residual = 2.4052598e-06, No Iterations 555
FDICPCG:  Solving for p, Initial residual = 1.6021212e-05, Final residual = 9.7093456e-07, No Iterations 4
time step continuity errors : sum local = 5.3650475e-09, global = -5.7229058e-11, cumulative = 9.278876e-09
ExecutionTime = 30.12 s  ClockTime = 30 s

fieldMinMax minmaxdomain output:
    min(p) = 0 at location (-0.000525 0 0.216)
    max(p) = 19.881753 at location (-0.00014395116 -0.0014503614 0.0015)
    min(U) = (-7.8796483e-05 4.5539711e-05 0.15013975) at location (-0.00014395116 -0.0014503614 0.0075)
    max(U) = (0.0073827369 0.071021114 1.3377049) at location (-0.00010410186 -0.0011123239 0.0015)

Time = 0.0105

Courant Number mean: 0.24271466 max: 0.59846731
smoothSolver:  Solving for Ux, Initial residual = 0.0048875006, Final residual = 5.3883709e-09, No Iterations 10
smoothSolver:  Solving for Uy, Initial residual = 0.0048880371, Final residual = 7.7022467e-09, No Iterations 10
smoothSolver:  Solving for Uz, Initial residual = 0.0029810971, Final residual = 8.6507442e-09, No Iterations 10
FDICPCG:  Solving for p, Initial residual = 0.00046938976, Final residual = 4.3013411e-06, No Iterations 560
FDICPCG:  Solving for p, Initial residual = 2.4007728e-05, Final residual = 7.922018e-07, No Iterations 6
time step continuity errors : sum local = 4.3039223e-09, global = 8.5487958e-11, cumulative = 9.3643639e-09
FDICPCG:  Solving for p, Initial residual = 0.00022071468, Final residual = 2.0114359e-06, No Iterations 555
FDICPCG:  Solving for p, Initial residual = 1.3616975e-05, Final residual = 8.2451602e-07, No Iterations 4
time step continuity errors : sum local = 4.5260924e-09, global = -4.1518232e-11, cumulative = 9.3228457e-09
ExecutionTime = 31.59 s  ClockTime = 31 s

fieldMinMax minmaxdomain output:
    min(p) = 0 at location (-0.000525 0 0.216)
    max(p) = 19.755425 at location (-0.00014395116 0.0014503614 0.0015)
    min(U) = (-7.9014356e-05 4.6850174e-05 0.15019883) at location (-0.00014395116 -0.0014503614 0.0075)
    max(U) = (0.0073853069 0.071042892 1.3379356) at location (-0.00010410186 -0.0011123239 0.0015)

Time = 0.011

Courant Number mean: 0.24276125 max: 0.59856401
smoothSolver:  Solving for Ux, Initial residual = 0.0045584994, Final residual = 4.8740256e-09, No Iterations 10
smoothSolver:  Solving for Uy, Initial residual = 0.0045585458, Final residual = 7.0005412e-09, No Iterations 10
smoothSolver:  Solving for Uz, Initial residual = 0.0026809595, Final residual = 7.8279759e-09, No Iterations 10
FDICPCG:  Solving for p, Initial residual = 0.00041785556, Final residual = 4.1779595e-06, No Iterations 557
FDICPCG:  Solving for p, Initial residual = 2.3081762e-05, Final residual = 8.2622129e-07, No Iterations 12
time step continuity errors : sum local = 4.4671511e-09, global = 6.7053633e-11, cumulative = 9.3898993e-09
FDICPCG:  Solving for p, Initial residual = 0.00020281839, Final residual = 1.6877922e-06, No Iterations 555
FDICPCG:  Solving for p, Initial residual = 1.2348329e-05, Final residual = 7.049428e-07, No Iterations 4
time step continuity errors : sum local = 3.8470058e-09, global = -3.4231682e-11, cumulative = 9.3556677e-09
ExecutionTime = 33.5 s  ClockTime = 33 s

fieldMinMax minmaxdomain output:
    min(p) = 0 at location (-0.000525 0 0.216)
    max(p) = 19.643089 at location (-0.0014503614 0.00014395116 0.0015)
    min(U) = (-7.9223039e-05 4.7693043e-05 0.1502711) at location (-0.00014395116 -0.0014503614 0.0075)
    max(U) = (0.007387573 0.071063111 1.3380474) at location (-0.00010410186 -0.0011123239 0.0015)

Time = 0.0115

Courant Number mean: 0.24280363 max: 0.59865267
smoothSolver:  Solving for Ux, Initial residual = 0.0042123749, Final residual = 4.4495422e-09, No Iterations 10
smoothSolver:  Solving for Uy, Initial residual = 0.0042123863, Final residual = 6.3871046e-09, No Iterations 10
smoothSolver:  Solving for Uz, Initial residual = 0.0024149968, Final residual = 7.0849403e-09, No Iterations 10
FDICPCG:  Solving for p, Initial residual = 0.00036817703, Final residual = 3.2271696e-06, No Iterations 556
FDICPCG:  Solving for p, Initial residual = 2.102028e-05, Final residual = 9.2735112e-07, No Iterations 11
time step continuity errors : sum local = 4.9922523e-09, global = 5.4425846e-11, cumulative = 9.4100935e-09
FDICPCG:  Solving for p, Initial residual = 0.00018701097, Final residual = 1.8688726e-06, No Iterations 548
FDICPCG:  Solving for p, Initial residual = 1.1810487e-05, Final residual = 9.169198e-07, No Iterations 9
time step continuity errors : sum local = 4.9775025e-09, global = -5.1906551e-11, cumulative = 9.358187e-09
ExecutionTime = 34.66 s  ClockTime = 34 s

fieldMinMax minmaxdomain output:
    min(p) = 0 at location (-0.000525 0 0.216)
    max(p) = 19.54294 at location (-0.0014503614 0.00014395116 0.0015)
    min(U) = (-7.9402612e-05 4.8200034e-05 0.15034552) at location (-0.00014395116 -0.0014503614 0.0075)
    max(U) = (0.0073895753 0.071082057 1.3380819) at location (-0.00010410186 -0.0011123239 0.0015)

Time = 0.012

Courant Number mean: 0.24284226 max: 0.5987348
smoothSolver:  Solving for Ux, Initial residual = 0.0038618405, Final residual = 4.0413077e-09, No Iterations 10
smoothSolver:  Solving for Uy, Initial residual = 0.0038629867, Final residual = 5.8074553e-09, No Iterations 10
smoothSolver:  Solving for Uz, Initial residual = 0.0021778389, Final residual = 6.4150344e-09, No Iterations 10
FDICPCG:  Solving for p, Initial residual = 0.00032961461, Final residual = 2.9443402e-06, No Iterations 555
FDICPCG:  Solving for p, Initial residual = 1.9889689e-05, Final residual = 9.6264722e-07, No Iterations 6
time step continuity errors : sum local = 5.1621144e-09, global = 8.8202928e-11, cumulative = 9.4463899e-09
FDICPCG:  Solving for p, Initial residual = 0.00017095479, Final residual = 1.2476096e-06, No Iterations 548
FDICPCG:  Solving for p, Initial residual = 1.0898443e-05, Final residual = 8.1421232e-07, No Iterations 4
time step continuity errors : sum local = 4.3991203e-09, global = -3.4083998e-11, cumulative = 9.4123059e-09
ExecutionTime = 35.97 s  ClockTime = 36 s

fieldMinMax minmaxdomain output:
    min(p) = 0 at location (-0.000525 0 0.216)
    max(p) = 19.453452 at location (0.00014395116 0.0014503614 0.0015)
    min(U) = (-7.9554426e-05 4.8477135e-05 0.15041516) at location (-0.00014395116 -0.0014503614 0.0075)
    max(U) = (0.0073913263 0.071099752 1.3380709) at location (-0.00010410186 -0.0011123239 0.0015)

Time = 0.0125

Courant Number mean: 0.2428775 max: 0.59881079
smoothSolver:  Solving for Ux, Initial residual = 0.0035154018, Final residual = 3.6424099e-09, No Iterations 10
smoothSolver:  Solving for Uy, Initial residual = 0.0035158693, Final residual = 5.2458732e-09, No Iterations 10
smoothSolver:  Solving for Uz, Initial residual = 0.001966447, Final residual = 5.812774e-09, No Iterations 10
FDICPCG:  Solving for p, Initial residual = 0.00029571821, Final residual = 2.4785171e-06, No Iterations 554
FDICPCG:  Solving for p, Initial residual = 1.8129119e-05, Final residual = 7.2883503e-07, No Iterations 5
time step continuity errors : sum local = 3.8945985e-09, global = 3.9100323e-11, cumulative = 9.4514062e-09
FDICPCG:  Solving for p, Initial residual = 0.00015553318, Final residual = 1.1575186e-06, No Iterations 542
FDICPCG:  Solving for p, Initial residual = 1.0074193e-05, Final residual = 8.7551992e-07, No Iterations 3
time step continuity errors : sum local = 4.7102927e-09, global = -6.9293207e-12, cumulative = 9.4444769e-09
ExecutionTime = 37.35 s  ClockTime = 37 s

fieldMinMax minmaxdomain output:
    min(p) = 0 at location (-0.000525 0 0.216)
    max(p) = 19.37333 at location (0.0014503614 -0.00014395116 0.0015)
    min(U) = (-7.9667054e-05 4.8604549e-05 0.15047611) at location (-0.00014395116 -0.0014503614 0.0075)
    max(U) = (0.0073928537 0.071116119 1.3380368) at location (-0.00010410186 -0.0011123239 0.0015)

Time = 0.013

Courant Number mean: 0.24290966 max: 0.59888051
smoothSolver:  Solving for Ux, Initial residual = 0.0031823368, Final residual = 3.2783059e-09, No Iterations 10
smoothSolver:  Solving for Uy, Initial residual = 0.0031826198, Final residual = 4.7445323e-09, No Iterations 10
smoothSolver:  Solving for Uz, Initial residual = 0.0017780883, Final residual = 5.268118e-09, No Iterations 10
FDICPCG:  Solving for p, Initial residual = 0.00026872343, Final residual = 1.9435199e-06, No Iterations 547
FDICPCG:  Solving for p, Initial residual = 1.618314e-05, Final residual = 8.6984481e-07, No Iterations 9
time step continuity errors : sum local = 4.6333833e-09, global = 3.2743904e-11, cumulative = 9.4772208e-09
FDICPCG:  Solving for p, Initial residual = 0.00014248217, Final residual = 1.4066813e-06, No Iterations 541
FDICPCG:  Solving for p, Initial residual = 9.5609891e-06, Final residual = 8.6197788e-07, No Iterations 3
time step continuity errors : sum local = 4.6197268e-09, global = -6.4892133e-11, cumulative = 9.4123287e-09
ExecutionTime = 39.27 s  ClockTime = 39 s

fieldMinMax minmaxdomain output:
    min(p) = 0 at location (-0.000525 0 0.216)
    max(p) = 19.301465 at location (0.00014395116 -0.0014503614 0.0015)
    min(U) = (-7.9743912e-05 4.8641718e-05 0.15052669) at location (-0.00014395116 -0.0014503614 0.0075)
    max(U) = (0.0073941747 0.071131058 1.3379949) at location (-0.00010410186 -0.0011123239 0.0015)

Time = 0.0135

Courant Number mean: 0.24293902 max: 0.59894374
smoothSolver:  Solving for Ux, Initial residual = 0.0028775799, Final residual = 2.9750029e-09, No Iterations 10
smoothSolver:  Solving for Uy, Initial residual = 0.0028777787, Final residual = 4.306811e-09, No Iterations 10
smoothSolver:  Solving for Uz, Initial residual = 0.0016097538, Final residual = 4.7750523e-09, No Iterations 10
FDICPCG:  Solving for p, Initial residual = 0.0002433231, Final residual = 1.7478933e-06, No Iterations 554
FDICPCG:  Solving for p, Initial residual = 1.4915341e-05, Final residual = 8.7571056e-07, No Iterations 4
time step continuity errors : sum local = 4.6512689e-09, global = -5.0005342e-11, cumulative = 9.3623233e-09
FDICPCG:  Solving for p, Initial residual = 0.00012971776, Final residual = 6.7000691e-07, No Iterations 548
FDICPCG:  Solving for p, Initial residual = 8.316917e-06, Final residual = 6.733495e-07, No Iterations 3
time step continuity errors : sum local = 3.5963327e-09, global = 4.835687e-11, cumulative = 9.4106802e-09
ExecutionTime = 40.63 s  ClockTime = 40 s

fieldMinMax minmaxdomain output:
    min(p) = 0 at location (-0.000525 0 0.216)
    max(p) = 19.236904 at location (0.00014395116 0.0014503614 0.0015)
    min(U) = (-7.9789492e-05 4.8632017e-05 0.15056667) at location (-0.00014395116 -0.0014503614 0.0075)
    max(U) = (0.0073953064 0.071144484 1.337955) at location (-0.00010410186 -0.0011123239 0.0015)

Time = 0.014

Courant Number mean: 0.24296581 max: 0.59900029
smoothSolver:  Solving for Ux, Initial residual = 0.0026245344, Final residual = 9.9201926e-09, No Iterations 9
smoothSolver:  Solving for Uy, Initial residual = 0.0026244106, Final residual = 3.9046629e-09, No Iterations 10
smoothSolver:  Solving for Uz, Initial residual = 0.0014583769, Final residual = 4.329624e-09, No Iterations 10
FDICPCG:  Solving for p, Initial residual = 0.00021895301, Final residual = 1.7143908e-06, No Iterations 554
FDICPCG:  Solving for p, Initial residual = 1.3557852e-05, Final residual = 8.1799772e-07, No Iterations 4
time step continuity errors : sum local = 4.333459e-09, global = -3.8562859e-11, cumulative = 9.3721173e-09
FDICPCG:  Solving for p, Initial residual = 0.0001180824, Final residual = 6.5459211e-07, No Iterations 548
FDICPCG:  Solving for p, Initial residual = 7.6028164e-06, Final residual = 6.3520969e-07, No Iterations 3
time step continuity errors : sum local = 3.3820509e-09, global = 4.0007051e-11, cumulative = 9.4121244e-09
ExecutionTime = 42.27 s  ClockTime = 42 s

fieldMinMax minmaxdomain output:
    min(p) = 0 at location (-0.000525 0 0.216)
    max(p) = 19.178821 at location (-0.00014395116 0.0014503614 0.0015)
    min(U) = (-7.9809036e-05 4.8604235e-05 0.15059679) at location (-0.00014395116 -0.0014503614 0.0075)
    max(U) = (0.0073962657 0.071156361 1.3379222) at location (-0.00010410186 -0.0011123239 0.0015)

Time = 0.0145

Courant Number mean: 0.2429903 max: 0.59905013
smoothSolver:  Solving for Ux, Initial residual = 0.0023924501, Final residual = 9.0019949e-09, No Iterations 9
smoothSolver:  Solving for Uy, Initial residual = 0.0023923615, Final residual = 3.5319985e-09, No Iterations 10
smoothSolver:  Solving for Uz, Initial residual = 0.0013218132, Final residual = 3.9272397e-09, No Iterations 10
FDICPCG:  Solving for p, Initial residual = 0.0001986567, Final residual = 1.6333533e-06, No Iterations 554
FDICPCG:  Solving for p, Initial residual = 1.2331884e-05, Final residual = 7.2844407e-07, No Iterations 4
time step continuity errors : sum local = 3.8499546e-09, global = -4.0221315e-11, cumulative = 9.3719031e-09
FDICPCG:  Solving for p, Initial residual = 0.00010753479, Final residual = 5.772926e-07, No Iterations 548
FDICPCG:  Solving for p, Initial residual = 6.894295e-06, Final residual = 5.6654295e-07, No Iterations 3
time step continuity errors : sum local = 3.0079361e-09, global = 3.6487322e-11, cumulative = 9.4083904e-09
ExecutionTime = 43.57 s  ClockTime = 43 s

fieldMinMax minmaxdomain output:
    min(p) = 0 at location (-0.000525 0 0.216)
    max(p) = 19.126502 at location (-0.00014395116 0.0014503614 0.0015)
    min(U) = (-7.9807686e-05 4.8576392e-05 0.15061832) at location (-0.00014395116 -0.0014503614 0.0075)
    max(U) = (0.0073970703 0.071166705 1.337899) at location (-0.00010410186 -0.0011123239 0.0015)

Time = 0.015

Courant Number mean: 0.24301268 max: 0.59909342
smoothSolver:  Solving for Ux, Initial residual = 0.0021670335, Final residual = 8.1454264e-09, No Iterations 9
smoothSolver:  Solving for Uy, Initial residual = 0.0021669252, Final residual = 3.1950172e-09, No Iterations 10
smoothSolver:  Solving for Uz, Initial residual = 0.0011985828, Final residual = 3.5628681e-09, No Iterations 10
FDICPCG:  Solving for p, Initial residual = 0.0001831388, Final residual = 9.0636983e-07, No Iterations 546
FDICPCG:  Solving for p, Initial residual = 1.0746161e-05, Final residual = 7.4996904e-07, No Iterations 3
time step continuity errors : sum local = 3.9552385e-09, global = 7.7186249e-12, cumulative = 9.416109e-09
FDICPCG:  Solving for p, Initial residual = 9.7005315e-05, Final residual = 9.6612043e-07, No Iterations 547
FDICPCG:  Solving for p, Initial residual = 6.3714821e-06, Final residual = 9.560306e-07, No Iterations 2
time step continuity errors : sum local = 5.0628494e-09, global = 1.9212346e-11, cumulative = 9.4353214e-09
ExecutionTime = 45.24 s  ClockTime = 45 s

fieldMinMax minmaxdomain output:
    min(p) = 0 at location (-0.000525 0 0.216)
    max(p) = 19.079322 at location (-0.00014395116 0.0014503614 0.0015)
    min(U) = (-7.9792874e-05 4.8558568e-05 0.15063276) at location (-0.00014395116 -0.0014503614 0.0075)
    max(U) = (0.0073977425 0.071175578 1.3378855) at location (-0.00010410186 -0.0011123239 0.0015)

Time = 0.0155

Courant Number mean: 0.24303311 max: 0.59913045
smoothSolver:  Solving for Ux, Initial residual = 0.0019551884, Final residual = 7.3394025e-09, No Iterations 9
smoothSolver:  Solving for Uy, Initial residual = 0.0019551509, Final residual = 2.8890485e-09, No Iterations 10
smoothSolver:  Solving for Uz, Initial residual = 0.0010872631, Final residual = 3.2326412e-09, No Iterations 10
FDICPCG:  Solving for p, Initial residual = 0.00016731911, Final residual = 1.1657177e-06, No Iterations 554
FDICPCG:  Solving for p, Initial residual = 9.694376e-06, Final residual = 7.3949425e-07, No Iterations 3
time step continuity errors : sum local = 3.8924186e-09, global = -2.5906093e-11, cumulative = 9.4094153e-09
FDICPCG:  Solving for p, Initial residual = 8.7757078e-05, Final residual = 8.364947e-07, No Iterations 547
FDICPCG:  Solving for p, Initial residual = 5.6604613e-06, Final residual = 8.4651926e-07, No Iterations 2
time step continuity errors : sum local = 4.4725071e-09, global = 1.3903864e-11, cumulative = 9.4233191e-09
ExecutionTime = 46.82 s  ClockTime = 47 s

fieldMinMax minmaxdomain output:
    min(p) = 0 at location (-0.000525 0 0.216)
    max(p) = 19.036733 at location (-0.00014395116 0.0014503614 0.0015)
    min(U) = (-7.9766152e-05 4.8555465e-05 0.15064165) at location (-0.00014395116 -0.0014503614 0.0075)
    max(U) = (0.0073982951 0.071183085 1.3378808) at location (-0.00010410186 -0.0011123239 0.0015)

Time = 0.016

Courant Number mean: 0.24305181 max: 0.59916177
smoothSolver:  Solving for Ux, Initial residual = 0.0017822679, Final residual = 6.6299111e-09, No Iterations 9
smoothSolver:  Solving for Uy, Initial residual = 0.0017821365, Final residual = 9.319007e-09, No Iterations 9
smoothSolver:  Solving for Uz, Initial residual = 0.00098684035, Final residual = 9.7930504e-09, No Iterations 9
FDICPCG:  Solving for p, Initial residual = 0.0001528857, Final residual = 9.2615271e-07, No Iterations 554
FDICPCG:  Solving for p, Initial residual = 8.6571443e-06, Final residual = 6.1662514e-07, No Iterations 3
time step continuity errors : sum local = 3.2399412e-09, global = -1.4886884e-11, cumulative = 9.4084322e-09
FDICPCG:  Solving for p, Initial residual = 8.0070681e-05, Final residual = 9.3272635e-07, No Iterations 546
FDICPCG:  Solving for p, Initial residual = 5.2612446e-06, Final residual = 8.0885566e-07, No Iterations 2
time step continuity errors : sum local = 4.2644996e-09, global = 3.4722517e-12, cumulative = 9.4119045e-09
ExecutionTime = 47.79 s  ClockTime = 48 s

fieldMinMax minmaxdomain output:
    min(p) = 0 at location (-0.000525 0 0.216)
    max(p) = 18.998257 at location (-0.00014395116 0.0014503614 0.0015)
    min(U) = (-7.9732184e-05 4.8567398e-05 0.1506464) at location (-0.00014395116 -0.0014503614 0.0075)
    max(U) = (0.0073987463 0.071189352 1.3378832) at location (-0.00010410186 -0.0011123239 0.0015)

Time = 0.0165

Courant Number mean: 0.24306889 max: 0.5991879
smoothSolver:  Solving for Ux, Initial residual = 0.0016231512, Final residual = 6.0096803e-09, No Iterations 9
smoothSolver:  Solving for Uy, Initial residual = 0.0016229961, Final residual = 8.4449723e-09, No Iterations 9
smoothSolver:  Solving for Uz, Initial residual = 0.00089593998, Final residual = 8.8903511e-09, No Iterations 9
FDICPCG:  Solving for p, Initial residual = 0.0001395565, Final residual = 1.3176568e-06, No Iterations 551
FDICPCG:  Solving for p, Initial residual = 8.1491095e-06, Final residual = 8.5412742e-07, No Iterations 3
time step continuity errors : sum local = 4.4806254e-09, global = -1.2722495e-11, cumulative = 9.399182e-09
FDICPCG:  Solving for p, Initial residual = 7.2750444e-05, Final residual = 9.9162715e-07, No Iterations 541
FDICPCG:  Solving for p, Initial residual = 4.8369565e-06, Final residual = 9.319132e-07, No Iterations 2
time step continuity errors : sum local = 4.9038702e-09, global = 4.4106024e-11, cumulative = 9.443288e-09
ExecutionTime = 49.57 s  ClockTime = 49 s

fieldMinMax minmaxdomain output:
    min(p) = 0 at location (-0.000525 0 0.216)
    max(p) = 18.963468 at location (0.0014503614 -0.00014395116 0.0015)
    min(U) = (-7.9696881e-05 4.8592708e-05 0.15064827) at location (-0.00014395116 -0.0014503614 0.0075)
    max(U) = (0.0073991141 0.071194521 1.3378908) at location (-0.00010410186 -0.0011123239 0.0015)

Time = 0.017

Courant Number mean: 0.24308452 max: 0.59920945
smoothSolver:  Solving for Ux, Initial residual = 0.0014706967, Final residual = 5.4500029e-09, No Iterations 9
smoothSolver:  Solving for Uy, Initial residual = 0.0014707589, Final residual = 7.6628986e-09, No Iterations 9
smoothSolver:  Solving for Uz, Initial residual = 0.00081348155, Final residual = 8.072984e-09, No Iterations 9
FDICPCG:  Solving for p, Initial residual = 0.00012669204, Final residual = 9.8794577e-07, No Iterations 547
FDICPCG:  Solving for p, Initial residual = 7.1275102e-06, Final residual = 6.8515963e-07, No Iterations 3
time step continuity errors : sum local = 3.5889687e-09, global = 1.7469894e-11, cumulative = 9.4607579e-09
FDICPCG:  Solving for p, Initial residual = 6.5731362e-05, Final residual = 9.6752667e-07, No Iterations 541
FDICPCG:  Solving for p, Initial residual = 4.4007578e-06, Final residual = 8.624926e-07, No Iterations 2
time step continuity errors : sum local = 4.5306454e-09, global = 6.1534128e-11, cumulative = 9.522292e-09
ExecutionTime = 51.6 s  ClockTime = 51 s

fieldMinMax minmaxdomain output:
    min(p) = 0 at location (-0.000525 0 0.216)
    max(p) = 18.931992 at location (0.00014395116 0.0014503614 0.0015)
    min(U) = (-7.9663447e-05 4.8628603e-05 0.15064827) at location (-0.00014395116 -0.0014503614 0.0075)
    max(U) = (0.0073994112 0.071198741 1.3379019) at location (-0.00010410186 -0.0011123239 0.0015)

Time = 0.0175

Courant Number mean: 0.24309879 max: 0.59922706
smoothSolver:  Solving for Ux, Initial residual = 0.001327375, Final residual = 4.9296517e-09, No Iterations 9
smoothSolver:  Solving for Uy, Initial residual = 0.0013273966, Final residual = 6.9573907e-09, No Iterations 9
smoothSolver:  Solving for Uz, Initial residual = 0.00073875124, Final residual = 7.331732e-09, No Iterations 9
FDICPCG:  Solving for p, Initial residual = 0.0001152251, Final residual = 1.0015417e-06, No Iterations 546
FDICPCG:  Solving for p, Initial residual = 6.4601853e-06, Final residual = 5.7762624e-07, No Iterations 3
time step continuity errors : sum local = 3.0216404e-09, global = 2.9945325e-12, cumulative = 9.5252866e-09
FDICPCG:  Solving for p, Initial residual = 5.9547422e-05, Final residual = 7.6136713e-07, No Iterations 541
FDICPCG:  Solving for p, Initial residual = 3.8785118e-06, Final residual = 7.2270831e-07, No Iterations 2
time step continuity errors : sum local = 3.7903253e-09, global = 4.8457569e-11, cumulative = 9.5737441e-09
ExecutionTime = 53.56 s  ClockTime = 53 s

fieldMinMax minmaxdomain output:
    min(p) = 0 at location (-0.000525 0 0.216)
    max(p) = 18.903497 at location (-0.00014395116 0.0014503614 0.0015)
    min(U) = (-7.9630086e-05 4.8671102e-05 0.15064721) at location (-0.00014395116 -0.0014503614 0.0075)
    max(U) = (0.0073996525 0.071202156 1.3379149) at location (-0.00010410186 -0.0011123239 0.0015)

Time = 0.018

Courant Number mean: 0.24311184 max: 0.59924132
smoothSolver:  Solving for Ux, Initial residual = 0.0012081283, Final residual = 4.4782065e-09, No Iterations 9
smoothSolver:  Solving for Uy, Initial residual = 0.0012081169, Final residual = 6.3183479e-09, No Iterations 9
smoothSolver:  Solving for Uz, Initial residual = 0.00067111029, Final residual = 6.6589113e-09, No Iterations 9
FDICPCG:  Solving for p, Initial residual = 0.00010508658, Final residual = 9.2484942e-07, No Iterations 546
FDICPCG:  Solving for p, Initial residual = 5.8021619e-06, Final residual = 9.2353127e-07, No Iterations 2
time step continuity errors : sum local = 4.8252174e-09, global = -1.7105341e-11, cumulative = 9.5566388e-09
FDICPCG:  Solving for p, Initial residual = 5.4227224e-05, Final residual = 7.6727029e-07, No Iterations 540
FDICPCG:  Solving for p, Initial residual = 3.4706059e-06, Final residual = 6.1956796e-07, No Iterations 2
time step continuity errors : sum local = 3.2446869e-09, global = 4.1119369e-11, cumulative = 9.5977582e-09
ExecutionTime = 55 s  ClockTime = 55 s

fieldMinMax minmaxdomain output:
    min(p) = 0 at location (-0.000525 0 0.216)
    max(p) = 18.877686 at location (0.00014395116 -0.0014503614 0.0015)
    min(U) = (-7.9600964e-05 4.871736e-05 0.15064569) at location (-0.00014395116 -0.0014503614 0.0075)
    max(U) = (0.0073998466 0.071204903 1.3379284) at location (-0.00010410186 -0.0011123239 0.0015)

Time = 0.0185

Courant Number mean: 0.24312378 max: 0.59925281
smoothSolver:  Solving for Ux, Initial residual = 0.0011032728, Final residual = 4.0667586e-09, No Iterations 9
smoothSolver:  Solving for Uy, Initial residual = 0.0011032622, Final residual = 5.7380079e-09, No Iterations 9
smoothSolver:  Solving for Uz, Initial residual = 0.00060980242, Final residual = 6.0488544e-09, No Iterations 9
FDICPCG:  Solving for p, Initial residual = 9.512944e-05, Final residual = 7.1391086e-07, No Iterations 546
FDICPCG:  Solving for p, Initial residual = 5.0792092e-06, Final residual = 7.7105789e-07, No Iterations 2
time step continuity errors : sum local = 4.0240887e-09, global = -2.6243896e-11, cumulative = 9.5715143e-09
FDICPCG:  Solving for p, Initial residual = 4.9270116e-05, Final residual = 6.8490039e-07, No Iterations 540
FDICPCG:  Solving for p, Initial residual = 3.0876244e-06, Final residual = 5.4295773e-07, No Iterations 2
time step continuity errors : sum local = 2.839719e-09, global = 1.9872676e-11, cumulative = 9.5913869e-09
ExecutionTime = 56.41 s  ClockTime = 56 s

fieldMinMax minmaxdomain output:
    min(p) = 0 at location (-0.000525 0 0.216)
    max(p) = 18.854297 at location (0.0014503614 -0.00014395116 0.0015)
    min(U) = (-7.9576234e-05 4.8764211e-05 0.1506441) at location (-0.00014395116 -0.0014503614 0.0075)
    max(U) = (0.007400006 0.071207103 1.3379415) at location (-0.00010410186 -0.0011123239 0.0015)

Time = 0.019

Courant Number mean: 0.24313469 max: 0.59926203
smoothSolver:  Solving for Ux, Initial residual = 0.0010038295, Final residual = 3.6947709e-09, No Iterations 9
smoothSolver:  Solving for Uy, Initial residual = 0.0010038524, Final residual = 5.2217346e-09, No Iterations 9
smoothSolver:  Solving for Uz, Initial residual = 0.00055414872, Final residual = 5.4951307e-09, No Iterations 9
FDICPCG:  Solving for p, Initial residual = 8.6725707e-05, Final residual = 7.2661519e-07, No Iterations 546
FDICPCG:  Solving for p, Initial residual = 4.6185001e-06, Final residual = 7.3255143e-07, No Iterations 2
time step continuity errors : sum local = 3.8192404e-09, global = -7.3993096e-12, cumulative = 9.5839876e-09
FDICPCG:  Solving for p, Initial residual = 4.4765175e-05, Final residual = 9.2524776e-07, No Iterations 537
FDICPCG:  Solving for p, Initial residual = 2.9671928e-06, Final residual = 6.5430081e-07, No Iterations 2
time step continuity errors : sum local = 3.4179323e-09, global = 3.3784522e-11, cumulative = 9.6177722e-09
ExecutionTime = 58.22 s  ClockTime = 58 s

fieldMinMax minmaxdomain output:
    min(p) = 0 at location (-0.000525 0 0.216)
    max(p) = 18.833094 at location (-0.00014395116 0.0014503614 0.0015)
    min(U) = (-7.9554503e-05 4.8809222e-05 0.15064272) at location (-0.00014395116 -0.0014503614 0.0075)
    max(U) = (0.0074001382 0.071208864 1.3379535) at location (-0.00010410186 -0.0011123239 0.0015)

Time = 0.0195

Courant Number mean: 0.24314468 max: 0.59926944
smoothSolver:  Solving for Ux, Initial residual = 0.00091490882, Final residual = 3.3629206e-09, No Iterations 9
smoothSolver:  Solving for Uy, Initial residual = 0.00091499936, Final residual = 4.7629884e-09, No Iterations 9
smoothSolver:  Solving for Uz, Initial residual = 0.00050366696, Final residual = 4.9925483e-09, No Iterations 9
FDICPCG:  Solving for p, Initial residual = 7.9857608e-05, Final residual = 7.5543771e-07, No Iterations 546
FDICPCG:  Solving for p, Initial residual = 4.2821707e-06, Final residual = 7.2444269e-07, No Iterations 2
time step continuity errors : sum local = 3.7734581e-09, global = -4.2218174e-12, cumulative = 9.6135503e-09
FDICPCG:  Solving for p, Initial residual = 4.0721252e-05, Final residual = 8.0612485e-07, No Iterations 540
FDICPCG:  Solving for p, Initial residual = 2.7041248e-06, Final residual = 5.7558961e-07, No Iterations 2
time step continuity errors : sum local = 3.0034561e-09, global = -2.0672746e-11, cumulative = 9.5928776e-09
ExecutionTime = 59.65 s  ClockTime = 59 s

fieldMinMax minmaxdomain output:
    min(p) = 0 at location (-0.000525 0 0.216)
    max(p) = 18.813866 at location (0.00014395116 -0.0014503614 0.0015)
    min(U) = (-7.9540856e-05 4.8851219e-05 0.15064167) at location (-0.00014395116 -0.0014503614 0.0075)
    max(U) = (0.0074002447 0.071210277 1.3379642) at location (-0.00010410186 -0.0011123239 0.0015)

Time = 0.02

Courant Number mean: 0.2431538 max: 0.59927539
smoothSolver:  Solving for Ux, Initial residual = 0.00083922556, Final residual = 3.0677349e-09, No Iterations 9
smoothSolver:  Solving for Uy, Initial residual = 0.00083936393, Final residual = 4.3355727e-09, No Iterations 9
smoothSolver:  Solving for Uz, Initial residual = 0.00045784504, Final residual = 4.5362365e-09, No Iterations 9
FDICPCG:  Solving for p, Initial residual = 7.3245091e-05, Final residual = 8.5240345e-07, No Iterations 546
FDICPCG:  Solving for p, Initial residual = 3.9634197e-06, Final residual = 7.0384309e-07, No Iterations 2
time step continuity errors : sum local = 3.6630531e-09, global = 3.2708259e-11, cumulative = 9.6255859e-09
FDICPCG:  Solving for p, Initial residual = 3.7193406e-05, Final residual = 7.5513857e-07, No Iterations 540
FDICPCG:  Solving for p, Initial residual = 2.4690328e-06, Final residual = 5.1382221e-07, No Iterations 2
time step continuity errors : sum local = 2.6784619e-09, global = -3.4935896e-11, cumulative = 9.59065e-09
ExecutionTime = 61.4 s  ClockTime = 61 s

fieldMinMax minmaxdomain output:
    min(p) = 0 at location (-0.000525 0 0.216)
    max(p) = 18.796425 at location (0.00014395116 -0.0014503614 0.0015)
    min(U) = (-7.9528424e-05 4.8888574e-05 0.15064101) at location (-0.00014395116 -0.0014503614 0.0075)
    max(U) = (0.0074003347 0.071211418 1.3379732) at location (-0.00010410186 -0.0011123239 0.0015)

Time = 0.0205

Courant Number mean: 0.24316215 max: 0.59928021
smoothSolver:  Solving for Ux, Initial residual = 0.00076890644, Final residual = 2.7925144e-09, No Iterations 9
smoothSolver:  Solving for Uy, Initial residual = 0.00076898285, Final residual = 3.9470353e-09, No Iterations 9
smoothSolver:  Solving for Uz, Initial residual = 0.00041619969, Final residual = 4.1220795e-09, No Iterations 9
FDICPCG:  Solving for p, Initial residual = 6.7053548e-05, Final residual = 9.0319492e-07, No Iterations 546
FDICPCG:  Solving for p, Initial residual = 3.6655753e-06, Final residual = 6.8140976e-07, No Iterations 2
time step continuity errors : sum local = 3.5435602e-09, global = 3.5013673e-11, cumulative = 9.6256636e-09
FDICPCG:  Solving for p, Initial residual = 3.3988772e-05, Final residual = 5.7144924e-07, No Iterations 540
FDICPCG:  Solving for p, Initial residual = 2.1518114e-06, Final residual = 9.2094963e-07, No Iterations 1
time step continuity errors : sum local = 4.79635e-09, global = -6.9461808e-12, cumulative = 9.6187175e-09
ExecutionTime = 63.08 s  ClockTime = 63 s

fieldMinMax minmaxdomain output:
    min(p) = 0 at location (-0.000525 0 0.216)
    max(p) = 18.780599 at location (-0.00014395116 -0.0014503614 0.0015)
    min(U) = (-7.9520253e-05 4.8921044e-05 0.15064073) at location (-0.00014395116 -0.0014503614 0.0075)
    max(U) = (0.0074004112 0.071212349 1.3379807) at location (-0.00010410186 -0.0011123239 0.0015)

Time = 0.021

Courant Number mean: 0.24316978 max: 0.59928414
smoothSolver:  Solving for Ux, Initial residual = 0.00070087129, Final residual = 9.5634011e-09, No Iterations 8
smoothSolver:  Solving for Uy, Initial residual = 0.00070091239, Final residual = 3.6018144e-09, No Iterations 9
smoothSolver:  Solving for Uz, Initial residual = 0.00037836062, Final residual = 3.7456976e-09, No Iterations 9
FDICPCG:  Solving for p, Initial residual = 6.1164663e-05, Final residual = 9.0057821e-07, No Iterations 546
FDICPCG:  Solving for p, Initial residual = 3.3411212e-06, Final residual = 6.2070281e-07, No Iterations 2
time step continuity errors : sum local = 3.2255845e-09, global = 3.4698993e-11, cumulative = 9.6534164e-09
FDICPCG:  Solving for p, Initial residual = 3.0801068e-05, Final residual = 7.0015154e-07, No Iterations 540
FDICPCG:  Solving for p, Initial residual = 2.0636083e-06, Final residual = 8.9852505e-07, No Iterations 1
time step continuity errors : sum local = 4.6756515e-09, global = -1.9267766e-11, cumulative = 9.6341487e-09
ExecutionTime = 64.97 s  ClockTime = 65 s

fieldMinMax minmaxdomain output:
    min(p) = 0 at location (-0.000525 0 0.216)
    max(p) = 18.766236 at location (-0.00014395116 -0.0014503614 0.0015)
    min(U) = (-7.9514232e-05 4.8948287e-05 0.15064077) at location (-0.00014395116 -0.0014503614 0.0075)
    max(U) = (0.0074004762 0.071213116 1.3379866) at location (-0.00010410186 -0.0011123239 0.0015)

Time = 0.0215

Courant Number mean: 0.24317676 max: 0.59928739
smoothSolver:  Solving for Ux, Initial residual = 0.00063734373, Final residual = 8.7173133e-09, No Iterations 8
smoothSolver:  Solving for Uy, Initial residual = 0.0006373727, Final residual = 3.2902904e-09, No Iterations 9
smoothSolver:  Solving for Uz, Initial residual = 0.00034402879, Final residual = 3.4038798e-09, No Iterations 9
FDICPCG:  Solving for p, Initial residual = 5.5640916e-05, Final residual = 8.6071041e-07, No Iterations 546
FDICPCG:  Solving for p, Initial residual = 3.0989795e-06, Final residual = 5.5985802e-07, No Iterations 2
time step continuity errors : sum local = 2.9075204e-09, global = 2.8438841e-11, cumulative = 9.6625875e-09
FDICPCG:  Solving for p, Initial residual = 2.8096664e-05, Final residual = 9.6718351e-07, No Iterations 530
FDICPCG:  Solving for p, Initial residual = 2.117987e-06, Final residual = 8.9901449e-07, No Iterations 1
time step continuity errors : sum local = 4.6746331e-09, global = 5.0871431e-12, cumulative = 9.6676747e-09
ExecutionTime = 66.43 s  ClockTime = 66 s

fieldMinMax minmaxdomain output:
    min(p) = 0 at location (-0.000525 0 0.216)
    max(p) = 18.753199 at location (-0.00014395116 -0.0014503614 0.0015)
    min(U) = (-7.9510794e-05 -4.8970791e-05 0.15064107) at location (-0.00014395116 0.0014503614 0.0075)
    max(U) = (0.0074005339 0.071213755 1.3379913) at location (-0.00010410186 -0.0011123239 0.0015)

Time = 0.022

Courant Number mean: 0.24318315 max: 0.59929012
smoothSolver:  Solving for Ux, Initial residual = 0.00058525096, Final residual = 7.9515984e-09, No Iterations 8
smoothSolver:  Solving for Uy, Initial residual = 0.00058553099, Final residual = 2.9983755e-09, No Iterations 9
smoothSolver:  Solving for Uz, Initial residual = 0.00031282229, Final residual = 3.0935099e-09, No Iterations 9
FDICPCG:  Solving for p, Initial residual = 5.0715789e-05, Final residual = 7.4952806e-07, No Iterations 546
FDICPCG:  Solving for p, Initial residual = 2.7995652e-06, Final residual = 4.9008993e-07, No Iterations 2
time step continuity errors : sum local = 2.5436947e-09, global = 3.465019e-11, cumulative = 9.7023249e-09
FDICPCG:  Solving for p, Initial residual = 2.5726001e-05, Final residual = 9.7073859e-07, No Iterations 537
FDICPCG:  Solving for p, Initial residual = 2.0006106e-06, Final residual = 9.7108333e-07, No Iterations 1
time step continuity errors : sum local = 5.0458569e-09, global = -1.6867179e-11, cumulative = 9.6854577e-09
ExecutionTime = 67.8 s  ClockTime = 68 s

fieldMinMax minmaxdomain output:
    min(p) = 0 at location (-0.000525 0 0.216)
    max(p) = 18.741363 at location (-0.00014395116 0.0014503614 0.0015)
    min(U) = (-7.9510078e-05 -4.8988946e-05 0.15064155) at location (-0.00014395116 0.0014503614 0.0075)
    max(U) = (0.0074005806 0.071214294 1.3379948) at location (-0.00010410186 -0.0011123239 0.0015)

Time = 0.0225

Courant Number mean: 0.24318899 max: 0.59929241
smoothSolver:  Solving for Ux, Initial residual = 0.00053750683, Final residual = 7.2880996e-09, No Iterations 8
smoothSolver:  Solving for Uy, Initial residual = 0.00053779447, Final residual = 9.8990825e-09, No Iterations 8
smoothSolver:  Solving for Uz, Initial residual = 0.00028443664, Final residual = 9.4302193e-09, No Iterations 8
FDICPCG:  Solving for p, Initial residual = 4.6582837e-05, Final residual = 6.5772712e-07, No Iterations 546
FDICPCG:  Solving for p, Initial residual = 2.6574486e-06, Final residual = 4.4960241e-07, No Iterations 2
time step continuity errors : sum local = 2.3323038e-09, global = 1.4294045e-11, cumulative = 9.6997517e-09
FDICPCG:  Solving for p, Initial residual = 2.3687898e-05, Final residual = 9.3319327e-07, No Iterations 534
FDICPCG:  Solving for p, Initial residual = 1.925332e-06, Final residual = 8.938737e-07, No Iterations 1
time step continuity errors : sum local = 4.6417181e-09, global = -4.3330102e-11, cumulative = 9.6564216e-09
ExecutionTime = 69.03 s  ClockTime = 69 s

fieldMinMax minmaxdomain output:
    min(p) = 0 at location (-0.000525 0 0.216)
    max(p) = 18.730617 at location (0.00014395116 -0.0014503614 0.0015)
    min(U) = (-7.9506919e-05 -4.9002787e-05 0.15064216) at location (-0.00014395116 0.0014503614 0.0075)
    max(U) = (0.0074006213 0.07121476 1.3379976) at location (-0.00010410186 -0.0011123239 0.0015)

Time = 0.023

Courant Number mean: 0.24319434 max: 0.59929438
smoothSolver:  Solving for Ux, Initial residual = 0.00049086036, Final residual = 6.6408026e-09, No Iterations 8
smoothSolver:  Solving for Uy, Initial residual = 0.00049064754, Final residual = 9.0070944e-09, No Iterations 8
smoothSolver:  Solving for Uz, Initial residual = 0.00025866283, Final residual = 8.5717756e-09, No Iterations 8
FDICPCG:  Solving for p, Initial residual = 4.2600654e-05, Final residual = 8.7443255e-07, No Iterations 545
FDICPCG:  Solving for p, Initial residual = 2.5827272e-06, Final residual = 4.37699e-07, No Iterations 2
time step continuity errors : sum local = 2.2694421e-09, global = -5.0436727e-12, cumulative = 9.6513779e-09
FDICPCG:  Solving for p, Initial residual = 2.1454995e-05, Final residual = 7.0995008e-07, No Iterations 537
FDICPCG:  Solving for p, Initial residual = 1.6254529e-06, Final residual = 7.6811426e-07, No Iterations 1
time step continuity errors : sum local = 3.9863597e-09, global = -4.39938e-12, cumulative = 9.6469786e-09
ExecutionTime = 70.4 s  ClockTime = 70 s

fieldMinMax minmaxdomain output:
    min(p) = 0 at location (-0.000525 0 0.216)
    max(p) = 18.720858 at location (0.00014395116 0.0014503614 0.0015)
    min(U) = (-7.9507315e-05 4.9013646e-05 0.15064282) at location (-0.00014395116 -0.0014503614 0.0075)
    max(U) = (0.0074006578 0.071215161 1.3379996) at location (-0.00010410186 -0.0011123239 0.0015)

Time = 0.0235

Courant Number mean: 0.24319923 max: 0.59929608
smoothSolver:  Solving for Ux, Initial residual = 0.00044779369, Final residual = 6.0553379e-09, No Iterations 8
smoothSolver:  Solving for Uy, Initial residual = 0.00044815823, Final residual = 8.2295441e-09, No Iterations 8
smoothSolver:  Solving for Uz, Initial residual = 0.00023524877, Final residual = 7.7910116e-09, No Iterations 8
FDICPCG:  Solving for p, Initial residual = 3.9127688e-05, Final residual = 7.5385454e-07, No Iterations 540
FDICPCG:  Solving for p, Initial residual = 2.3044306e-06, Final residual = 5.2468366e-07, No Iterations 2
time step continuity errors : sum local = 2.7192355e-09, global = 5.2295752e-11, cumulative = 9.6992743e-09
FDICPCG:  Solving for p, Initial residual = 1.9572069e-05, Final residual = 9.3396432e-07, No Iterations 531
FDICPCG:  Solving for p, Initial residual = 1.7170787e-06, Final residual = 8.2340377e-07, No Iterations 1
time step continuity errors : sum local = 4.2710406e-09, global = -6.6825563e-12, cumulative = 9.6925918e-09
ExecutionTime = 72.42 s  ClockTime = 72 s

fieldMinMax minmaxdomain output:
    min(p) = 0 at location (-0.000525 0 0.216)
    max(p) = 18.711995 at location (-0.0014503614 -0.00014395116 0.0015)
    min(U) = (-7.9508412e-05 -4.9021906e-05 0.15064347) at location (-0.00014395116 0.0014503614 0.0075)
    max(U) = (0.0074006895 0.071215512 1.3380011) at location (-0.00010410186 -0.0011123239 0.0015)

Time = 0.024

Courant Number mean: 0.2432037 max: 0.59929757
smoothSolver:  Solving for Ux, Initial residual = 0.00041186949, Final residual = 5.5454101e-09, No Iterations 8
smoothSolver:  Solving for Uy, Initial residual = 0.00041194153, Final residual = 7.5286071e-09, No Iterations 8
smoothSolver:  Solving for Uz, Initial residual = 0.00021393277, Final residual = 7.0816735e-09, No Iterations 8
FDICPCG:  Solving for p, Initial residual = 3.6092056e-05, Final residual = 5.4679716e-07, No Iterations 540
FDICPCG:  Solving for p, Initial residual = 2.0660613e-06, Final residual = 8.7546366e-07, No Iterations 1
time step continuity errors : sum local = 4.5353437e-09, global = 2.6574665e-12, cumulative = 9.6952492e-09
FDICPCG:  Solving for p, Initial residual = 1.8017736e-05, Final residual = 8.3206306e-07, No Iterations 531
FDICPCG:  Solving for p, Initial residual = 1.5724477e-06, Final residual = 7.535823e-07, No Iterations 1
time step continuity errors : sum local = 3.9069851e-09, global = 2.1169397e-11, cumulative = 9.7164186e-09
ExecutionTime = 74.73 s  ClockTime = 74 s

fieldMinMax minmaxdomain output:
    min(p) = 0 at location (-0.000525 0 0.216)
    max(p) = 18.703945 at location (0.00014395116 0.0014503614 0.0015)
    min(U) = (-7.9507799e-05 4.9028003e-05 0.1506441) at location (-0.00014395116 -0.0014503614 0.0075)
    max(U) = (0.0074007177 0.07121582 1.3380022) at location (-0.00010410186 -0.0011123239 0.0015)

Time = 0.0245

Courant Number mean: 0.2432078 max: 0.59929887
smoothSolver:  Solving for Ux, Initial residual = 0.00037706996, Final residual = 5.067614e-09, No Iterations 8
smoothSolver:  Solving for Uy, Initial residual = 0.00037715545, Final residual = 6.8692483e-09, No Iterations 8
smoothSolver:  Solving for Uz, Initial residual = 0.00019453859, Final residual = 6.437268e-09, No Iterations 8
FDICPCG:  Solving for p, Initial residual = 3.3118644e-05, Final residual = 7.2330483e-07, No Iterations 539
FDICPCG:  Solving for p, Initial residual = 2.0186859e-06, Final residual = 8.2596268e-07, No Iterations 1
time step continuity errors : sum local = 4.277309e-09, global = 4.7135479e-12, cumulative = 9.7211322e-09
FDICPCG:  Solving for p, Initial residual = 1.6447635e-05, Final residual = 8.3989271e-07, No Iterations 526
FDICPCG:  Solving for p, Initial residual = 1.4838973e-06, Final residual = 7.3585952e-07, No Iterations 1
time step continuity errors : sum local = 3.8134185e-09, global = -4.7244594e-11, cumulative = 9.6738876e-09
ExecutionTime = 76.08 s  ClockTime = 76 s

fieldMinMax minmaxdomain output:
    min(p) = 0 at location (-0.000525 0 0.216)
    max(p) = 18.696632 at location (-0.0014503614 0.00014395116 0.0015)
    min(U) = (-7.9507813e-05 -4.9032539e-05 0.15064468) at location (-0.00014395116 0.0014503614 0.0075)
    max(U) = (0.0074007412 0.071216091 1.3380031) at location (-0.00010410186 -0.0011123239 0.0015)

Time = 0.025

Courant Number mean: 0.24321154 max: 0.59930002
smoothSolver:  Solving for Ux, Initial residual = 0.0003438173, Final residual = 4.6127256e-09, No Iterations 8
smoothSolver:  Solving for Uy, Initial residual = 0.00034379367, Final residual = 6.2670877e-09, No Iterations 8
smoothSolver:  Solving for Uz, Initial residual = 0.00017693136, Final residual = 5.8511317e-09, No Iterations 8
FDICPCG:  Solving for p, Initial residual = 3.0438595e-05, Final residual = 8.2355676e-07, No Iterations 539
FDICPCG:  Solving for p, Initial residual = 1.9379185e-06, Final residual = 8.0556111e-07, No Iterations 1
time step continuity errors : sum local = 4.1702417e-09, global = 1.5334529e-11, cumulative = 9.6892221e-09
FDICPCG:  Solving for p, Initial residual = 1.492459e-05, Final residual = 9.0300215e-07, No Iterations 530
FDICPCG:  Solving for p, Initial residual = 1.4413129e-06, Final residual = 6.3384462e-07, No Iterations 1
time step continuity errors : sum local = 3.2834297e-09, global = -8.7584832e-12, cumulative = 9.6804636e-09
ExecutionTime = 78.3 s  ClockTime = 78 s

fieldMinMax minmaxdomain output:
    min(p) = 0 at location (-0.000525 0 0.216)
    max(p) = 18.68999 at location (-0.00014395116 -0.0014503614 0.0015)
    min(U) = (-7.9508666e-05 4.903611e-05 0.15064518) at location (-0.00014395116 -0.0014503614 0.0075)
    max(U) = (0.0074007639 0.071216328 1.3380039) at location (-0.00010410186 -0.0011123239 0.0015)

Time = 0.0255

Courant Number mean: 0.24321497 max: 0.59930102
smoothSolver:  Solving for Ux, Initial residual = 0.00031476323, Final residual = 4.2097301e-09, No Iterations 8
smoothSolver:  Solving for Uy, Initial residual = 0.0003148943, Final residual = 5.7262449e-09, No Iterations 8
smoothSolver:  Solving for Uz, Initial residual = 0.00016091319, Final residual = 5.3181739e-09, No Iterations 8
FDICPCG:  Solving for p, Initial residual = 2.7852906e-05, Final residual = 7.7806962e-07, No Iterations 531
FDICPCG:  Solving for p, Initial residual = 1.7780109e-06, Final residual = 8.1069173e-07, No Iterations 1
time step continuity errors : sum local = 4.1954995e-09, global = 2.8611277e-12, cumulative = 9.6833248e-09
FDICPCG:  Solving for p, Initial residual = 1.3641891e-05, Final residual = 9.6359281e-07, No Iterations 530
FDICPCG:  Solving for p, Initial residual = 1.4337367e-06, Final residual = 6.4466037e-07, No Iterations 1
time step continuity errors : sum local = 3.3382308e-09, global = -1.694575e-11, cumulative = 9.666379e-09
ExecutionTime = 80.5 s  ClockTime = 80 s

fieldMinMax minmaxdomain output:
    min(p) = 0 at location (-0.000525 0 0.216)
    max(p) = 18.683956 at location (-0.00014395116 0.0014503614 0.0015)
    min(U) = (-7.9508775e-05 4.9038678e-05 0.1506456) at location (-0.00014395116 -0.0014503614 0.0075)
    max(U) = (0.00740078 0.071216537 1.3380046) at location (-0.00010410186 -0.0011123239 0.0015)

Time = 0.026

Courant Number mean: 0.2432181 max: 0.59930189
smoothSolver:  Solving for Ux, Initial residual = 0.00028829196, Final residual = 3.8529878e-09, No Iterations 8
smoothSolver:  Solving for Uy, Initial residual = 0.00028834488, Final residual = 5.2364142e-09, No Iterations 8
smoothSolver:  Solving for Uz, Initial residual = 0.0001463322, Final residual = 4.8340659e-09, No Iterations 8
FDICPCG:  Solving for p, Initial residual = 2.5581573e-05, Final residual = 7.9475612e-07, No Iterations 531
FDICPCG:  Solving for p, Initial residual = 1.6963739e-06, Final residual = 7.8232188e-07, No Iterations 1
time step continuity errors : sum local = 4.047535e-09, global = -1.5282371e-11, cumulative = 9.6510966e-09
FDICPCG:  Solving for p, Initial residual = 1.2478771e-05, Final residual = 8.8616881e-07, No Iterations 523
FDICPCG:  Solving for p, Initial residual = 1.3189859e-06, Final residual = 6.9738388e-07, No Iterations 1
time step continuity errors : sum local = 3.6100391e-09, global = -2.1724019e-11, cumulative = 9.6293726e-09
ExecutionTime = 82.7 s  ClockTime = 82 s

fieldMinMax minmaxdomain output:
    min(p) = 0 at location (-0.000525 0 0.216)
    max(p) = 18.678474 at location (-0.0014503614 -0.00014395116 0.0015)
    min(U) = (-7.9509398e-05 -4.904078e-05 0.15064595) at location (-0.00014395116 0.0014503614 0.0075)
    max(U) = (0.0074007947 0.071216719 1.3380052) at location (-0.00010410186 -0.0011123239 0.0015)

Time = 0.0265

Courant Number mean: 0.24322096 max: 0.59930266
smoothSolver:  Solving for Ux, Initial residual = 0.00026355016, Final residual = 3.5195195e-09, No Iterations 8
smoothSolver:  Solving for Uy, Initial residual = 0.00026362614, Final residual = 4.7778073e-09, No Iterations 8
smoothSolver:  Solving for Uz, Initial residual = 0.00013307761, Final residual = 4.394094e-09, No Iterations 8
FDICPCG:  Solving for p, Initial residual = 2.3568232e-05, Final residual = 9.2025874e-07, No Iterations 531
FDICPCG:  Solving for p, Initial residual = 1.7274066e-06, Final residual = 8.3770637e-07, No Iterations 1
time step continuity errors : sum local = 4.332961e-09, global = 1.7276457e-11, cumulative = 9.6466491e-09
FDICPCG:  Solving for p, Initial residual = 1.1529459e-05, Final residual = 8.8244908e-07, No Iterations 530
FDICPCG:  Solving for p, Initial residual = 1.2822514e-06, Final residual = 5.7343616e-07, No Iterations 1
time step continuity errors : sum local = 2.9675104e-09, global = 7.2406241e-12, cumulative = 9.6538897e-09
ExecutionTime = 84.15 s  ClockTime = 84 s

fieldMinMax minmaxdomain output:
    min(p) = 0 at location (-0.000525 0 0.216)
    max(p) = 18.673494 at location (0.00014395116 -0.0014503614 0.0015)
    min(U) = (-7.9508296e-05 4.9042472e-05 0.15064623) at location (-0.00014395116 -0.0014503614 0.0075)
    max(U) = (0.0074008063 0.071216877 1.3380057) at location (-0.00010410186 -0.0011123239 0.0015)

Time = 0.027

Courant Number mean: 0.24322358 max: 0.59930332
smoothSolver:  Solving for Ux, Initial residual = 0.00024086573, Final residual = 3.2105708e-09, No Iterations 8
smoothSolver:  Solving for Uy, Initial residual = 0.00024079939, Final residual = 4.3711219e-09, No Iterations 8
smoothSolver:  Solving for Uz, Initial residual = 0.0001210338, Final residual = 3.9936901e-09, No Iterations 8
FDICPCG:  Solving for p, Initial residual = 2.1631477e-05, Final residual = 8.061058e-07, No Iterations 530
FDICPCG:  Solving for p, Initial residual = 1.5427185e-06, Final residual = 7.0177979e-07, No Iterations 1
time step continuity errors : sum local = 3.6290377e-09, global = -9.9073245e-12, cumulative = 9.6439824e-09
FDICPCG:  Solving for p, Initial residual = 1.0442833e-05, Final residual = 8.6057777e-07, No Iterations 523
FDICPCG:  Solving for p, Initial residual = 1.2209768e-06, Final residual = 6.485669e-07, No Iterations 1
time step continuity errors : sum local = 3.3553727e-09, global = -2.6518134e-11, cumulative = 9.6174642e-09
ExecutionTime = 85.68 s  ClockTime = 85 s

fieldMinMax minmaxdomain output:
    min(p) = 0 at location (-0.000525 0 0.216)
    max(p) = 18.668969 at location (-0.0014503614 -0.00014395116 0.0015)
    min(U) = (-7.9508654e-05 -4.904397e-05 0.15064645) at location (-0.00014395116 0.0014503614 0.0075)
    max(U) = (0.0074008203 0.071217016 1.3380062) at location (-0.00010410186 -0.0011123239 0.0015)

Time = 0.0275

Courant Number mean: 0.24322598 max: 0.5993039
smoothSolver:  Solving for Ux, Initial residual = 0.00022085685, Final residual = 2.9430402e-09, No Iterations 8
smoothSolver:  Solving for Uy, Initial residual = 0.00022082133, Final residual = 3.9952866e-09, No Iterations 8
smoothSolver:  Solving for Uz, Initial residual = 0.0001100699, Final residual = 3.6298501e-09, No Iterations 8
FDICPCG:  Solving for p, Initial residual = 1.9890734e-05, Final residual = 5.8621849e-07, No Iterations 539
FDICPCG:  Solving for p, Initial residual = 1.3197655e-06, Final residual = 5.5155403e-07, No Iterations 1
[...]
smoothSolver:  Solving for Uz, Initial residual = 1.1281618e-09, Final residual = 1.1281618e-09, No Iterations 0
FDICPCG:  Solving for p, Initial residual = 9.134897e-07, Final residual = 9.134897e-07, No Iterations 0
FDICPCG:  Solving for p, Initial residual = 9.134897e-07, Final residual = 9.134897e-07, No Iterations 0
time step continuity errors : sum local = 4.7120733e-09, global = -4.2591182e-10, cumulative = -1.6185062e-07
FDICPCG:  Solving for p, Initial residual = 9.1492544e-07, Final residual = 9.1492544e-07, No Iterations 0
FDICPCG:  Solving for p, Initial residual = 9.1492544e-07, Final residual = 9.1492544e-07, No Iterations 0
time step continuity errors : sum local = 4.7194793e-09, global = -4.2592772e-10, cumulative = -1.6227655e-07
ExecutionTime = 210.64 s  ClockTime = 211 s

fieldMinMax minmaxdomain output:
    min(p) = 0 at location (-0.000525 0 0.216)
    max(p) = 18.624213 at location (0.00014395116 0.0014503614 0.0015)
    min(U) = (-7.9503466e-05 4.9058257e-05 0.15064742) at location (-0.00014395116 -0.0014503614 0.0075)
    max(U) = (0.0074008845 0.071217845 1.338011) at location (-0.00010410186 -0.0011123239 0.0015)

Time = 0.194

Courant Number mean: 0.24325132 max: 0.59930741
smoothSolver:  Solving for Ux, Initial residual = 6.2847075e-07, Final residual = 4.2788436e-09, No Iterations 3
smoothSolver:  Solving for Uy, Initial residual = 3.7436384e-07, Final residual = 2.8758619e-09, No Iterations 3
smoothSolver:  Solving for Uz, Initial residual = 3.0894786e-09, Final residual = 3.0894786e-09, No Iterations 0
FDICPCG:  Solving for p, Initial residual = 1.4248191e-06, Final residual = 3.3013599e-07, No Iterations 1
FDICPCG:  Solving for p, Initial residual = 3.1737047e-07, Final residual = 3.1737047e-07, No Iterations 0
time step continuity errors : sum local = 1.6370998e-09, global = -4.2609963e-10, cumulative = -1.6270265e-07
FDICPCG:  Solving for p, Initial residual = 7.7832534e-07, Final residual = 7.7832534e-07, No Iterations 0
FDICPCG:  Solving for p, Initial residual = 7.7832534e-07, Final residual = 7.7832534e-07, No Iterations 0
time step continuity errors : sum local = 4.0148531e-09, global = -4.2605062e-10, cumulative = -1.631287e-07
ExecutionTime = 210.78 s  ClockTime = 211 s

fieldMinMax minmaxdomain output:
    min(p) = 0 at location (-0.000525 0 0.216)
    max(p) = 18.624213 at location (-0.00014395116 -0.0014503614 0.0015)
    min(U) = (-7.9503464e-05 4.9058256e-05 0.15064742) at location (-0.00014395116 -0.0014503614 0.0075)
    max(U) = (0.0074008845 0.071217846 1.338011) at location (-0.00010410186 -0.0011123239 0.0015)

Time = 0.1945

Courant Number mean: 0.24325132 max: 0.59930739
smoothSolver:  Solving for Ux, Initial residual = 2.2104295e-06, Final residual = 3.0328094e-09, No Iterations 4
smoothSolver:  Solving for Uy, Initial residual = 1.298359e-06, Final residual = 9.6016891e-09, No Iterations 3
smoothSolver:  Solving for Uz, Initial residual = 3.3171378e-09, Final residual = 3.3171378e-09, No Iterations 0
FDICPCG:  Solving for p, Initial residual = 2.6106072e-06, Final residual = 6.0564857e-07, No Iterations 1
FDICPCG:  Solving for p, Initial residual = 6.3611878e-07, Final residual = 6.3611878e-07, No Iterations 0
time step continuity errors : sum local = 3.28131e-09, global = -4.2572126e-10, cumulative = -1.6355442e-07
FDICPCG:  Solving for p, Initial residual = 1.4674387e-06, Final residual = 4.0084776e-07, No Iterations 1
FDICPCG:  Solving for p, Initial residual = 4.288695e-07, Final residual = 4.288695e-07, No Iterations 0
time step continuity errors : sum local = 2.2122469e-09, global = -4.257282e-10, cumulative = -1.6398015e-07
ExecutionTime = 211.02 s  ClockTime = 211 s

fieldMinMax minmaxdomain output:
    min(p) = 0 at location (-0.000525 0 0.216)
    max(p) = 18.624213 at location (0.00014395116 0.0014503614 0.0015)
    min(U) = (-7.9503464e-05 4.9058255e-05 0.15064742) at location (-0.00014395116 -0.0014503614 0.0075)
    max(U) = (0.0074008845 0.071217846 1.338011) at location (-0.00010410186 -0.0011123239 0.0015)

Time = 0.195

Courant Number mean: 0.24325132 max: 0.59930739
smoothSolver:  Solving for Ux, Initial residual = 1.1409021e-06, Final residual = 7.6090354e-09, No Iterations 3
smoothSolver:  Solving for Uy, Initial residual = 7.2455806e-07, Final residual = 5.4382548e-09, No Iterations 3
smoothSolver:  Solving for Uz, Initial residual = 1.3260634e-09, Final residual = 1.3260634e-09, No Iterations 0
FDICPCG:  Solving for p, Initial residual = 1.3013355e-06, Final residual = 3.8540977e-07, No Iterations 1
FDICPCG:  Solving for p, Initial residual = 3.5700324e-07, Final residual = 3.5700324e-07, No Iterations 0
time step continuity errors : sum local = 1.8415377e-09, global = -4.257454e-10, cumulative = -1.644059e-07
FDICPCG:  Solving for p, Initial residual = 6.8633049e-07, Final residual = 6.8633049e-07, No Iterations 0
FDICPCG:  Solving for p, Initial residual = 6.8633049e-07, Final residual = 6.8633049e-07, No Iterations 0
time step continuity errors : sum local = 3.5403131e-09, global = -4.2569061e-10, cumulative = -1.6483159e-07
ExecutionTime = 211.3 s  ClockTime = 212 s

fieldMinMax minmaxdomain output:
    min(p) = 0 at location (-0.000525 0 0.216)
    max(p) = 18.624213 at location (0.00014395116 -0.0014503614 0.0015)
    min(U) = (-7.9503559e-05 -4.9058408e-05 0.15064742) at location (-0.00014395116 0.0014503614 0.0075)
    max(U) = (0.0074008845 0.071217846 1.338011) at location (-0.00010410186 -0.0011123239 0.0015)

Time = 0.1955

Courant Number mean: 0.24325132 max: 0.59930739
smoothSolver:  Solving for Ux, Initial residual = 1.2648598e-06, Final residual = 8.2444423e-09, No Iterations 3
smoothSolver:  Solving for Uy, Initial residual = 7.7984419e-07, Final residual = 5.6622699e-09, No Iterations 3
smoothSolver:  Solving for Uz, Initial residual = 2.783707e-09, Final residual = 2.783707e-09, No Iterations 0
FDICPCG:  Solving for p, Initial residual = 1.7377192e-06, Final residual = 5.1582032e-07, No Iterations 1
FDICPCG:  Solving for p, Initial residual = 5.1063528e-07, Final residual = 5.1063528e-07, No Iterations 0
time step continuity errors : sum local = 2.6340231e-09, global = -4.2544397e-10, cumulative = -1.6525703e-07
FDICPCG:  Solving for p, Initial residual = 9.5805182e-07, Final residual = 9.5805182e-07, No Iterations 0
FDICPCG:  Solving for p, Initial residual = 9.5805182e-07, Final residual = 9.5805182e-07, No Iterations 0
time step continuity errors : sum local = 4.941941e-09, global = -4.2533482e-10, cumulative = -1.6568237e-07
ExecutionTime = 211.39 s  ClockTime = 212 s

fieldMinMax minmaxdomain output:
    min(p) = 0 at location (-0.000525 0 0.216)
    max(p) = 18.624213 at location (0.00014395116 0.0014503614 0.0015)
    min(U) = (-7.9503462e-05 4.9058277e-05 0.15064742) at location (-0.00014395116 -0.0014503614 0.0075)
    max(U) = (0.0074008845 0.071217846 1.338011) at location (-0.00010410186 -0.0011123239 0.0015)

Time = 0.196

Courant Number mean: 0.24325132 max: 0.59930739
smoothSolver:  Solving for Ux, Initial residual = 1.991454e-06, Final residual = 2.57307e-09, No Iterations 4
smoothSolver:  Solving for Uy, Initial residual = 1.2140096e-06, Final residual = 8.3733992e-09, No Iterations 3
smoothSolver:  Solving for Uz, Initial residual = 3.9093771e-09, Final residual = 3.9093771e-09, No Iterations 0
FDICPCG:  Solving for p, Initial residual = 2.6615716e-06, Final residual = 8.0321307e-07, No Iterations 1
FDICPCG:  Solving for p, Initial residual = 8.2920006e-07, Final residual = 8.2920006e-07, No Iterations 0
time step continuity errors : sum local = 4.277287e-09, global = -4.2542583e-10, cumulative = -1.6610779e-07
FDICPCG:  Solving for p, Initial residual = 1.5297684e-06, Final residual = 3.8759467e-07, No Iterations 1
FDICPCG:  Solving for p, Initial residual = 4.0938669e-07, Final residual = 4.0938669e-07, No Iterations 0
time step continuity errors : sum local = 2.1117483e-09, global = -4.2530465e-10, cumulative = -1.665331e-07
ExecutionTime = 211.5 s  ClockTime = 212 s

fieldMinMax minmaxdomain output:
    min(p) = 0 at location (-0.000525 0 0.216)
    max(p) = 18.624213 at location (-0.00014395116 -0.0014503614 0.0015)
    min(U) = (-7.9503461e-05 4.9058251e-05 0.15064742) at location (-0.00014395116 -0.0014503614 0.0075)
    max(U) = (0.0074008845 0.071217846 1.338011) at location (-0.00010410186 -0.0011123239 0.0015)

Time = 0.1965

Courant Number mean: 0.24325132 max: 0.59930739
smoothSolver:  Solving for Ux, Initial residual = 1.335362e-06, Final residual = 9.1010851e-09, No Iterations 3
smoothSolver:  Solving for Uy, Initial residual = 8.1704734e-07, Final residual = 6.2223197e-09, No Iterations 3
smoothSolver:  Solving for Uz, Initial residual = 1.4615883e-09, Final residual = 1.4615883e-09, No Iterations 0
FDICPCG:  Solving for p, Initial residual = 1.4301607e-06, Final residual = 3.9837201e-07, No Iterations 1
FDICPCG:  Solving for p, Initial residual = 4.2410119e-07, Final residual = 4.2410119e-07, No Iterations 0
time step continuity errors : sum local = 2.1876515e-09, global = -4.2503939e-10, cumulative = -1.6695814e-07
FDICPCG:  Solving for p, Initial residual = 8.4152358e-07, Final residual = 8.4152358e-07, No Iterations 0
FDICPCG:  Solving for p, Initial residual = 8.4152358e-07, Final residual = 8.4152358e-07, No Iterations 0
time step continuity errors : sum local = 4.3408498e-09, global = -4.2487527e-10, cumulative = -1.6738301e-07
ExecutionTime = 211.6 s  ClockTime = 212 s

fieldMinMax minmaxdomain output:
    min(p) = 0 at location (-0.000525 0 0.216)
    max(p) = 18.624213 at location (0.00014395116 0.0014503614 0.0015)
    min(U) = (-7.9503746e-05 -4.9058509e-05 0.15064742) at location (-0.00014395116 0.0014503614 0.0075)
    max(U) = (0.0074008845 0.071217846 1.338011) at location (-0.00010410186 -0.0011123239 0.0015)

Time = 0.197

Courant Number mean: 0.24325132 max: 0.59930739
smoothSolver:  Solving for Ux, Initial residual = 1.7222406e-06, Final residual = 2.3691351e-09, No Iterations 4
smoothSolver:  Solving for Uy, Initial residual = 1.0434891e-06, Final residual = 7.4407552e-09, No Iterations 3
smoothSolver:  Solving for Uz, Initial residual = 3.2198565e-09, Final residual = 3.2198565e-09, No Iterations 0
FDICPCG:  Solving for p, Initial residual = 2.3047273e-06, Final residual = 7.0391526e-07, No Iterations 1
FDICPCG:  Solving for p, Initial residual = 7.7233744e-07, Final residual = 7.7233744e-07, No Iterations 0
time step continuity errors : sum local = 3.9839702e-09, global = -4.2464256e-10, cumulative = -1.6780765e-07
FDICPCG:  Solving for p, Initial residual = 1.3985765e-06, Final residual = 3.9468112e-07, No Iterations 1
FDICPCG:  Solving for p, Initial residual = 4.2281666e-07, Final residual = 4.2281666e-07, No Iterations 0
time step continuity errors : sum local = 2.1810245e-09, global = -4.2441977e-10, cumulative = -1.6823207e-07
ExecutionTime = 211.71 s  ClockTime = 212 s

fieldMinMax minmaxdomain output:
    min(p) = 0 at location (-0.000525 0 0.216)
    max(p) = 18.624213 at location (0.00014395116 -0.0014503614 0.0015)
    min(U) = (-7.9503467e-05 4.9058253e-05 0.15064742) at location (-0.00014395116 -0.0014503614 0.0075)
    max(U) = (0.0074008845 0.071217846 1.338011) at location (-0.00010410186 -0.0011123239 0.0015)

Time = 0.1975

Courant Number mean: 0.24325132 max: 0.59930739
smoothSolver:  Solving for Ux, Initial residual = 1.2701662e-06, Final residual = 8.6787872e-09, No Iterations 3
smoothSolver:  Solving for Uy, Initial residual = 7.5149307e-07, Final residual = 5.8135794e-09, No Iterations 3
smoothSolver:  Solving for Uz, Initial residual = 1.7536733e-09, Final residual = 1.7536733e-09, No Iterations 0
FDICPCG:  Solving for p, Initial residual = 1.3856033e-06, Final residual = 4.3322312e-07, No Iterations 1
FDICPCG:  Solving for p, Initial residual = 4.2901003e-07, Final residual = 4.2901003e-07, No Iterations 0
time step continuity errors : sum local = 2.2129728e-09, global = -4.2408683e-10, cumulative = -1.6865616e-07
FDICPCG:  Solving for p, Initial residual = 8.022507e-07, Final residual = 8.022507e-07, No Iterations 0
FDICPCG:  Solving for p, Initial residual = 8.022507e-07, Final residual = 8.022507e-07, No Iterations 0
time step continuity errors : sum local = 4.1382677e-09, global = -4.2389747e-10, cumulative = -1.6908006e-07
ExecutionTime = 211.81 s  ClockTime = 212 s

fieldMinMax minmaxdomain output:
    min(p) = 0 at location (-0.000525 0 0.216)
    max(p) = 18.624213 at location (0.00014395116 0.0014503614 0.0015)
    min(U) = (-7.9503449e-05 4.9058251e-05 0.15064742) at location (-0.00014395116 -0.0014503614 0.0075)
    max(U) = (0.0074008845 0.071217846 1.338011) at location (-0.00010410186 -0.0011123239 0.0015)

Time = 0.198

Courant Number mean: 0.24325132 max: 0.59930739
smoothSolver:  Solving for Ux, Initial residual = 1.5752511e-06, Final residual = 2.1668018e-09, No Iterations 4
smoothSolver:  Solving for Uy, Initial residual = 9.4763527e-07, Final residual = 6.6918817e-09, No Iterations 3
smoothSolver:  Solving for Uz, Initial residual = 2.8491026e-09, Final residual = 2.8491026e-09, No Iterations 0
FDICPCG:  Solving for p, Initial residual = 2.1557886e-06, Final residual = 6.8490433e-07, No Iterations 1
FDICPCG:  Solving for p, Initial residual = 7.1058189e-07, Final residual = 7.1058189e-07, No Iterations 0
time step continuity errors : sum local = 3.6654146e-09, global = -4.2367941e-10, cumulative = -1.6950374e-07
FDICPCG:  Solving for p, Initial residual = 1.2770467e-06, Final residual = 3.5451371e-07, No Iterations 1
FDICPCG:  Solving for p, Initial residual = 3.7040272e-07, Final residual = 3.7040272e-07, No Iterations 0
time step continuity errors : sum local = 1.9106563e-09, global = -4.2345218e-10, cumulative = -1.6992719e-07
ExecutionTime = 211.91 s  ClockTime = 212 s

fieldMinMax minmaxdomain output:
    min(p) = 0 at location (-0.000525 0 0.216)
    max(p) = 18.624213 at location (-0.0014503614 -0.00014395116 0.0015)
    min(U) = (-7.9503463e-05 4.9058253e-05 0.15064742) at location (-0.00014395116 -0.0014503614 0.0075)
    max(U) = (0.0074008845 0.071217846 1.338011) at location (-0.00010410186 -0.0011123239 0.0015)

Time = 0.1985

Courant Number mean: 0.24325132 max: 0.59930739
smoothSolver:  Solving for Ux, Initial residual = 1.1428842e-06, Final residual = 7.9457196e-09, No Iterations 3
smoothSolver:  Solving for Uy, Initial residual = 6.7283911e-07, Final residual = 5.2157988e-09, No Iterations 3
smoothSolver:  Solving for Uz, Initial residual = 1.686592e-09, Final residual = 1.686592e-09, No Iterations 0
FDICPCG:  Solving for p, Initial residual = 1.2396322e-06, Final residual = 3.7546204e-07, No Iterations 1
FDICPCG:  Solving for p, Initial residual = 3.9108027e-07, Final residual = 3.9108027e-07, No Iterations 0
time step continuity errors : sum local = 2.0173184e-09, global = -4.2313588e-10, cumulative = -1.7035033e-07
FDICPCG:  Solving for p, Initial residual = 7.5161219e-07, Final residual = 7.5161219e-07, No Iterations 0
FDICPCG:  Solving for p, Initial residual = 7.5161219e-07, Final residual = 7.5161219e-07, No Iterations 0
time step continuity errors : sum local = 3.8770575e-09, global = -4.2294811e-10, cumulative = -1.7077327e-07
ExecutionTime = 212 s  ClockTime = 212 s

fieldMinMax minmaxdomain output:
    min(p) = 0 at location (-0.000525 0 0.216)
    max(p) = 18.624213 at location (0.00014395116 0.0014503614 0.0015)
    min(U) = (-7.9503725e-05 -4.905852e-05 0.15064742) at location (-0.00014395116 0.0014503614 0.0075)
    max(U) = (0.0074008845 0.071217846 1.338011) at location (-0.00010410186 -0.0011123239 0.0015)

Time = 0.199

Courant Number mean: 0.24325132 max: 0.59930739
smoothSolver:  Solving for Ux, Initial residual = 1.4770715e-06, Final residual = 9.8778201e-09, No Iterations 3
smoothSolver:  Solving for Uy, Initial residual = 8.9444797e-07, Final residual = 6.2492027e-09, No Iterations 3
smoothSolver:  Solving for Uz, Initial residual = 2.5506712e-09, Final residual = 2.5506712e-09, No Iterations 0
FDICPCG:  Solving for p, Initial residual = 2.0114178e-06, Final residual = 6.331909e-07, No Iterations 1
FDICPCG:  Solving for p, Initial residual = 6.84545e-07, Final residual = 6.84545e-07, No Iterations 0
time step continuity errors : sum local = 3.5311074e-09, global = -4.2265806e-10, cumulative = -1.7119593e-07
FDICPCG:  Solving for p, Initial residual = 1.2324171e-06, Final residual = 3.4965755e-07, No Iterations 1
FDICPCG:  Solving for p, Initial residual = 3.7142648e-07, Final residual = 3.7142648e-07, No Iterations 0
time step continuity errors : sum local = 1.9159372e-09, global = -4.2244211e-10, cumulative = -1.7161837e-07
ExecutionTime = 212.1 s  ClockTime = 212 s

fieldMinMax minmaxdomain output:
    min(p) = 0 at location (-0.000525 0 0.216)
    max(p) = 18.624213 at location (0.00014395116 -0.0014503614 0.0015)
    min(U) = (-7.9503466e-05 4.9058255e-05 0.15064742) at location (-0.00014395116 -0.0014503614 0.0075)
    max(U) = (0.0074008845 0.071217846 1.338011) at location (-0.00010410186 -0.0011123239 0.0015)

Time = 0.1995

Courant Number mean: 0.24325132 max: 0.59930739
smoothSolver:  Solving for Ux, Initial residual = 1.0848504e-06, Final residual = 7.5539771e-09, No Iterations 3
smoothSolver:  Solving for Uy, Initial residual = 6.3339364e-07, Final residual = 4.920824e-09, No Iterations 3
smoothSolver:  Solving for Uz, Initial residual = 1.7554353e-09, Final residual = 1.7554353e-09, No Iterations 0
FDICPCG:  Solving for p, Initial residual = 1.2008033e-06, Final residual = 3.9477777e-07, No Iterations 1
FDICPCG:  Solving for p, Initial residual = 3.9506565e-07, Final residual = 3.9506565e-07, No Iterations 0
time step continuity errors : sum local = 2.0378765e-09, global = -4.2215739e-10, cumulative = -1.7204053e-07
FDICPCG:  Solving for p, Initial residual = 7.2375247e-07, Final residual = 7.2375247e-07, No Iterations 0
FDICPCG:  Solving for p, Initial residual = 7.2375247e-07, Final residual = 7.2375247e-07, No Iterations 0
time step continuity errors : sum local = 3.7333483e-09, global = -4.2198603e-10, cumulative = -1.7246252e-07
ExecutionTime = 212.21 s  ClockTime = 213 s

fieldMinMax minmaxdomain output:
    min(p) = 0 at location (-0.000525 0 0.216)
    max(p) = 18.624213 at location (-0.00014395116 0.0014503614 0.0015)
    min(U) = (-7.9503498e-05 -4.9058482e-05 0.15064742) at location (-0.00014395116 0.0014503614 0.0075)
    max(U) = (0.0074008845 0.071217846 1.338011) at location (-0.00010410186 -0.0011123239 0.0015)

Time = 0.2

Courant Number mean: 0.24325132 max: 0.59930739
smoothSolver:  Solving for Ux, Initial residual = 1.3789222e-06, Final residual = 9.236543e-09, No Iterations 3
smoothSolver:  Solving for Uy, Initial residual = 8.2610214e-07, Final residual = 5.8318653e-09, No Iterations 3
smoothSolver:  Solving for Uz, Initial residual = 2.4410056e-09, Final residual = 2.4410056e-09, No Iterations 0
FDICPCG:  Solving for p, Initial residual = 1.9133597e-06, Final residual = 6.2015915e-07, No Iterations 1
FDICPCG:  Solving for p, Initial residual = 6.4742928e-07, Final residual = 6.4742928e-07, No Iterations 0
time step continuity errors : sum local = 3.3396522e-09, global = -4.2171666e-10, cumulative = -1.7288423e-07
FDICPCG:  Solving for p, Initial residual = 1.1488669e-06, Final residual = 3.2794928e-07, No Iterations 1
FDICPCG:  Solving for p, Initial residual = 3.4172071e-07, Final residual = 3.4172071e-07, No Iterations 0
time step continuity errors : sum local = 1.7627053e-09, global = -4.2149286e-10, cumulative = -1.7330573e-07
ExecutionTime = 212.5 s  ClockTime = 213 s

fieldMinMax minmaxdomain output:
    min(p) = 0 at location (-0.000525 0 0.216)
    max(p) = 18.624213 at location (-0.0014503614 -0.00014395116 0.0015)
    min(U) = (-7.9503465e-05 4.9058254e-05 0.15064742) at location (-0.00014395116 -0.0014503614 0.0075)
    max(U) = (0.0074008845 0.071217846 1.338011) at location (-0.00010410186 -0.0011123239 0.0015)

End

